New Line.mt3758865500 Bus1=bus_mt4543690 Bus2=bus_mt5077422 phases=3 r1=0.0001506 r0=0.00016539999999999998 x1=4.2499999999999996e-05 x0=0.0001653 Normamps=106 length=71.0 units=m
New Line.mt3758865600 Bus1=bus_mt5077422 Bus2=bus_mt4486135 phases=3 r1=0.0001506 r0=0.00016539999999999998 x1=4.2499999999999996e-05 x0=0.0001653 Normamps=106 length=73.0 units=m
New Line.mt3758865700 Bus1=bus_mt4486135 Bus2=bus_mt4623504 phases=3 r1=0.0001506 r0=0.00016539999999999998 x1=4.2499999999999996e-05 x0=0.0001653 Normamps=106 length=72.0 units=m
New Line.mt3758865800 Bus1=bus_mt4623504 Bus2=bus_mt5570222 phases=3 r1=0.0001506 r0=0.00016539999999999998 x1=4.2499999999999996e-05 x0=0.0001653 Normamps=106 length=95.0 units=m
New Line.mt4500195131 Bus1=bus_mt79481861 Bus2=bus_mt79482414 phases=3 r1=0.0001506 r0=0.00016539999999999998 x1=4.2499999999999996e-05 x0=0.0001653 Normamps=106 length=41.0 units=m
New Line.mt25588700 Bus1=bus_mt4778269 Bus2=bus_mt4477716 phases=3 r1=0.0001506 r0=0.00016539999999999998 x1=4.2499999999999996e-05 x0=0.0001653 Normamps=106 length=54.0 units=m
New Line.mt25588600 Bus1=bus_mt5393658 Bus2=bus_mt4778269 phases=3 r1=0.0001506 r0=0.00016539999999999998 x1=4.2499999999999996e-05 x0=0.0001653 Normamps=106 length=103.0 units=m
New Line.mt25588500 Bus1=bus_mt4741451 Bus2=bus_mt5393658 phases=3 r1=0.0001506 r0=0.00016539999999999998 x1=4.2499999999999996e-05 x0=0.0001653 Normamps=106 length=103.0 units=m
New Line.mt24740600 Bus1=bus_mt5386113 Bus2=bus_mt4999338 phases=3 r1=0.0001506 r0=0.00016539999999999998 x1=4.2499999999999996e-05 x0=0.0001653 Normamps=106 length=73.0 units=m
New Line.mt805606400 Bus1=bus_mt12362171 Bus2=bus_mt8312524 phases=3 r1=0.0001506 r0=0.00016539999999999998 x1=4.2499999999999996e-05 x0=0.0001653 Normamps=106 length=110.0 units=m
New Line.mt24740500 Bus1=bus_mt43976709 Bus2=bus_mt5386113 phases=3 r1=0.0001506 r0=0.00016539999999999998 x1=4.2499999999999996e-05 x0=0.0001653 Normamps=106 length=70.0 units=m
New Line.mt3725346400 Bus1=bus_mt22318013 Bus2=bus_mt3756909 phases=3 r1=0.0001506 r0=0.00016539999999999998 x1=4.2499999999999996e-05 x0=0.0001653 Normamps=106 length=63.0 units=m
New Line.mt3725346900 Bus1=bus_mt22318008 Bus2=bus_mt22318013 phases=3 r1=0.0001506 r0=0.00016539999999999998 x1=4.2499999999999996e-05 x0=0.0001653 Normamps=106 length=62.0 units=m
New Line.mt3725347400 Bus1=bus_mt22318003 Bus2=bus_mt22318008 phases=3 r1=0.0001506 r0=0.00016539999999999998 x1=4.2499999999999996e-05 x0=0.0001653 Normamps=106 length=60.0 units=m
New Line.mt3725347900 Bus1=bus_mt22317998 Bus2=bus_mt22318003 phases=3 r1=0.0001506 r0=0.00016539999999999998 x1=4.2499999999999996e-05 x0=0.0001653 Normamps=106 length=66.0 units=m
New Line.mt25592200 Bus1=bus_mt4174224 Bus2=bus_mt4042290 phases=3 r1=0.0001506 r0=0.00016539999999999998 x1=4.2499999999999996e-05 x0=0.0001653 Normamps=106 length=79.0 units=m
New Line.mt25592100 Bus1=bus_mt4348028 Bus2=bus_mt4174224 phases=3 r1=0.0001506 r0=0.00016539999999999998 x1=4.2499999999999996e-05 x0=0.0001653 Normamps=106 length=97.0 units=m
New Line.mt3725350800 Bus1=bus_mt4166247 Bus2=bus_mt22347035 phases=3 r1=0.0001506 r0=0.00016539999999999998 x1=4.2499999999999996e-05 x0=0.0001653 Normamps=106 length=65.0 units=m
New Line.mt3725350900 Bus1=bus_mt22347035 Bus2=bus_mt4348028 phases=3 r1=0.0001506 r0=0.00016539999999999998 x1=4.2499999999999996e-05 x0=0.0001653 Normamps=106 length=55.0 units=m
New Line.mt24215900 Bus1=bus_mt5151618 Bus2=bus_mt32405442 phases=3 r1=0.0001506 r0=0.00016539999999999998 x1=4.2499999999999996e-05 x0=0.0001653 Normamps=106 length=61.0 units=m
New Line.mt561100400 Bus1=bus_mt10640226 Bus2=bus_mt10640221 phases=3 r1=0.0001506 r0=0.00016539999999999998 x1=4.2499999999999996e-05 x0=0.0001653 Normamps=106 length=129.0 units=m
New Line.mt561100000 Bus1=bus_mt10640230 Bus2=bus_mt10640226 phases=3 r1=0.0001506 r0=0.00016539999999999998 x1=4.2499999999999996e-05 x0=0.0001653 Normamps=106 length=93.0 units=m
New Line.mt24215800 Bus1=bus_mt4701076 Bus2=bus_mt5151618 phases=3 r1=0.0001506 r0=0.00016539999999999998 x1=4.2499999999999996e-05 x0=0.0001653 Normamps=106 length=73.0 units=m
New Line.mt3756304700 Bus1=bus_mt5068208 Bus2=bus_mt32626955 phases=3 r1=0.0001506 r0=0.00016539999999999998 x1=4.2499999999999996e-05 x0=0.0001653 Normamps=106 length=146.0 units=m
New Line.mt561099700 Bus1=bus_mt10640239 Bus2=bus_mt10640230 phases=3 r1=0.0001506 r0=0.00016539999999999998 x1=4.2499999999999996e-05 x0=0.0001653 Normamps=106 length=114.0 units=m
New Line.mt24215700 Bus1=bus_mt5285739 Bus2=bus_mt4701076 phases=3 r1=0.0001506 r0=0.00016539999999999998 x1=4.2499999999999996e-05 x0=0.0001653 Normamps=106 length=96.0 units=m
New Line.mt25198300 Bus1=bus_mt8304901 Bus2=bus_mt8304896 phases=3 r1=0.0001506 r0=0.00016539999999999998 x1=4.2499999999999996e-05 x0=0.0001653 Normamps=106 length=86.0 units=m
New Line.mt25198200 Bus1=bus_mt8304891 Bus2=bus_mt8304901 phases=3 r1=0.0001506 r0=0.00016539999999999998 x1=4.2499999999999996e-05 x0=0.0001653 Normamps=106 length=83.0 units=m
New Line.mt25198100 Bus1=bus_mt8304888 Bus2=bus_mt8304891 phases=3 r1=0.0001506 r0=0.00016539999999999998 x1=4.2499999999999996e-05 x0=0.0001653 Normamps=106 length=83.0 units=m
New Line.mt25198000 Bus1=bus_mt8304885 Bus2=bus_mt8304888 phases=3 r1=0.0001506 r0=0.00016539999999999998 x1=4.2499999999999996e-05 x0=0.0001653 Normamps=106 length=83.0 units=m
New Line.mt25197900 Bus1=bus_mt8771367 Bus2=bus_mt8304885 phases=3 r1=0.0001506 r0=0.00016539999999999998 x1=4.2499999999999996e-05 x0=0.0001653 Normamps=106 length=80.0 units=m
New Line.mt24236100 Bus1=bus_mt4824805 Bus2=bus_mt5245042 phases=3 r1=0.0001506 r0=0.00016539999999999998 x1=4.2499999999999996e-05 x0=0.0001653 Normamps=106 length=67.0 units=m
New Line.mt24747700 Bus1=bus_mt5726702 Bus2=bus_mt5675241 phases=3 r1=0.0001506 r0=0.00016539999999999998 x1=4.2499999999999996e-05 x0=0.0001653 Normamps=106 length=55.0 units=m
New Line.mt3758865900 Bus1=bus_mt5570222 Bus2=bus_mt4614564 phases=3 r1=0.0001506 r0=0.00016539999999999998 x1=4.2499999999999996e-05 x0=0.0001653 Normamps=106 length=86.0 units=m
New Line.mt24747600 Bus1=bus_mt5173605 Bus2=bus_mt5726702 phases=3 r1=0.0001506 r0=0.00016539999999999998 x1=4.2499999999999996e-05 x0=0.0001653 Normamps=106 length=52.0 units=m
New Line.mt3758866000 Bus1=bus_mt4614564 Bus2=bus_mt4741451 phases=3 r1=0.0001506 r0=0.00016539999999999998 x1=4.2499999999999996e-05 x0=0.0001653 Normamps=106 length=107.0 units=m
New Line.mt24747500 Bus1=bus_mt3543879 Bus2=bus_mt5068208 phases=3 r1=0.0001506 r0=0.00016539999999999998 x1=4.2499999999999996e-05 x0=0.0001653 Normamps=106 length=123.0 units=m
New Line.mt24236500 Bus1=bus_mt4190510 Bus2=bus_mt4020522 phases=3 r1=0.0001506 r0=0.00016539999999999998 x1=4.2499999999999996e-05 x0=0.0001653 Normamps=106 length=112.0 units=m
New Line.mt25591900 Bus1=bus_mt3756909 Bus2=bus_mt4166247 phases=3 r1=0.0001506 r0=0.00016539999999999998 x1=4.2499999999999996e-05 x0=0.0001653 Normamps=106 length=64.0 units=m
New Line.mt25043400 Bus1=bus_mt4114698 Bus2=bus_mt4955679 phases=3 r1=0.0001506 r0=0.00016539999999999998 x1=4.2499999999999996e-05 x0=0.0001653 Normamps=106 length=107.0 units=m
New Line.mt25592300 Bus1=bus_mt4042290 Bus2=bus_mt4208491 phases=3 r1=0.0001506 r0=0.00016539999999999998 x1=4.2499999999999996e-05 x0=0.0001653 Normamps=106 length=76.0 units=m
New Line.mt25043300 Bus1=bus_mt5562431 Bus2=bus_mt4114698 phases=3 r1=0.0001506 r0=0.00016539999999999998 x1=4.2499999999999996e-05 x0=0.0001653 Normamps=106 length=186.0 units=m
New Line.mt24747400 Bus1=bus_mt5613269 Bus2=bus_mt3543879 phases=3 r1=0.0001506 r0=0.00016539999999999998 x1=4.2499999999999996e-05 x0=0.0001653 Normamps=106 length=126.0 units=m
New Line.mt24747300 Bus1=bus_mt4781566 Bus2=bus_mt5613269 phases=3 r1=0.0001506 r0=0.00016539999999999998 x1=4.2499999999999996e-05 x0=0.0001653 Normamps=106 length=122.0 units=m
New Line.mt4500108736 Bus1=bus_mt25564286 Bus2=bus_mt10640239 phases=3 r1=0.0001506 r0=0.00016539999999999998 x1=4.2499999999999996e-05 x0=0.0001653 Normamps=106 length=26.0 units=m
New Line.mt25591400 Bus1=bus_mt22318021 Bus2=bus_mt22317998 phases=3 r1=0.0001506 r0=0.00016539999999999998 x1=4.2499999999999996e-05 x0=0.0001653 Normamps=106 length=62.0 units=m
New Line.mt24747200 Bus1=bus_mt5173605 Bus2=bus_mt4781566 phases=3 r1=0.0001506 r0=0.00016539999999999998 x1=4.2499999999999996e-05 x0=0.0001653 Normamps=106 length=126.0 units=m
New Line.mt25591300 Bus1=bus_mt5504446 Bus2=bus_mt22318021 phases=3 r1=0.0001506 r0=0.00016539999999999998 x1=4.2499999999999996e-05 x0=0.0001653 Normamps=106 length=59.0 units=m
New Line.mt460181500 Bus1=bus_mt5378388 Bus2=bus_mt4996719 phases=3 r1=0.0001506 r0=0.00016539999999999998 x1=4.2499999999999996e-05 x0=0.0001653 Normamps=106 length=96.0 units=m
New Line.mt25592400 Bus1=bus_mt4208491 Bus2=bus_mt4114773 phases=3 r1=0.0001506 r0=0.00016539999999999998 x1=4.2499999999999996e-05 x0=0.0001653 Normamps=106 length=84.0 units=m
New Line.mt24236400 Bus1=bus_mt5355711 Bus2=bus_mt4190510 phases=3 r1=0.0001506 r0=0.00016539999999999998 x1=4.2499999999999996e-05 x0=0.0001653 Normamps=106 length=105.0 units=m
New Line.mt24216000 Bus1=bus_mt32405442 Bus2=bus_mt4824805 phases=3 r1=0.0001506 r0=0.00016539999999999998 x1=4.2499999999999996e-05 x0=0.0001653 Normamps=106 length=82.0 units=m
New Line.mt25591200 Bus1=bus_mt98930788 Bus2=bus_mt5504446 phases=3 r1=0.0001506 r0=0.00016539999999999998 x1=4.2499999999999996e-05 x0=0.0001653 Normamps=106 length=59.0 units=m
New Line.mt24236300 Bus1=bus_mt3655719 Bus2=bus_mt5355711 phases=3 r1=0.0001506 r0=0.00016539999999999998 x1=4.2499999999999996e-05 x0=0.0001653 Normamps=106 length=103.0 units=m
New Line.mt4500906873 Bus1=bus_mt224434053 Bus2=bus_mt5285739 phases=3 r1=0.0001506 r0=0.00016539999999999998 x1=4.2499999999999996e-05 x0=0.0001653 Normamps=106 length=54.0 units=m
New Line.mt3761414100 Bus1=bus_mt5358678 Bus2=bus_mt5562431 phases=3 r1=0.0001506 r0=0.00016539999999999998 x1=4.2499999999999996e-05 x0=0.0001653 Normamps=106 length=150.0 units=m
New Line.mt1005237800 Bus1=bus_mt12717052 Bus2=bus_mt8533327 phases=3 r1=0.0001506 r0=0.00016539999999999998 x1=4.2499999999999996e-05 x0=0.0001653 Normamps=106 length=30.0 units=m
New Line.mt24236200 Bus1=bus_mt5245042 Bus2=bus_mt3655719 phases=3 r1=0.0001506 r0=0.00016539999999999998 x1=4.2499999999999996e-05 x0=0.0001653 Normamps=106 length=126.0 units=m
New Line.mt1005237700 Bus1=bus_mt12717052 Bus2=bus_mt8530004 phases=3 r1=0.0001506 r0=0.00016539999999999998 x1=4.2499999999999996e-05 x0=0.0001653 Normamps=106 length=54.0 units=m
New Line.mt25591100 Bus1=bus_mt5611520 Bus2=bus_mt98930788 phases=3 r1=0.0001506 r0=0.00016539999999999998 x1=4.2499999999999996e-05 x0=0.0001653 Normamps=106 length=84.0 units=m
New Line.mt25591000 Bus1=bus_mt5561249 Bus2=bus_mt5611520 phases=3 r1=0.0001506 r0=0.00016539999999999998 x1=4.2499999999999996e-05 x0=0.0001653 Normamps=106 length=89.0 units=m
New Line.mt24747100 Bus1=bus_mt5489887 Bus2=bus_mt5173605 phases=3 r1=0.0001506 r0=0.00016539999999999998 x1=4.2499999999999996e-05 x0=0.0001653 Normamps=106 length=138.0 units=m
New Line.mt25590900 Bus1=bus_mt4561669 Bus2=bus_mt5561249 phases=3 r1=0.0001506 r0=0.00016539999999999998 x1=4.2499999999999996e-05 x0=0.0001653 Normamps=106 length=79.0 units=m
New Line.mt24747000 Bus1=bus_mt4462934 Bus2=bus_mt5489887 phases=3 r1=0.0001506 r0=0.00016539999999999998 x1=4.2499999999999996e-05 x0=0.0001653 Normamps=106 length=136.0 units=m
New Line.mt3758862700 Bus1=bus_mt8312524 Bus2=bus_mt3234144 phases=3 r1=0.0001506 r0=0.00016539999999999998 x1=4.2499999999999996e-05 x0=0.0001653 Normamps=106 length=129.0 units=m
New Line.mt24746900 Bus1=bus_mt4996719 Bus2=bus_mt4462934 phases=3 r1=0.0001506 r0=0.00016539999999999998 x1=4.2499999999999996e-05 x0=0.0001653 Normamps=106 length=111.0 units=m
New Line.mt3758862800 Bus1=bus_mt3234144 Bus2=bus_mt5087027 phases=3 r1=0.0001506 r0=0.00016539999999999998 x1=4.2499999999999996e-05 x0=0.0001653 Normamps=106 length=129.0 units=m
New Line.mt24741000 Bus1=bus_mt3655820 Bus2=bus_mt5230385 phases=3 r1=0.0001506 r0=0.00016539999999999998 x1=4.2499999999999996e-05 x0=0.0001653 Normamps=106 length=89.0 units=m
New Line.mt24740900 Bus1=bus_mt5654773 Bus2=bus_mt3655820 phases=3 r1=0.0001506 r0=0.00016539999999999998 x1=4.2499999999999996e-05 x0=0.0001653 Normamps=106 length=133.0 units=m
New Line.mt24740800 Bus1=bus_mt5283198 Bus2=bus_mt5654773 phases=3 r1=0.0001506 r0=0.00016539999999999998 x1=4.2499999999999996e-05 x0=0.0001653 Normamps=106 length=144.0 units=m
New Line.mt3758862900 Bus1=bus_mt5087027 Bus2=bus_mt3579087 phases=3 r1=0.0001506 r0=0.00016539999999999998 x1=4.2499999999999996e-05 x0=0.0001653 Normamps=106 length=144.0 units=m
New Line.mt24740700 Bus1=bus_mt4999338 Bus2=bus_mt5283198 phases=3 r1=0.0001506 r0=0.00016539999999999998 x1=4.2499999999999996e-05 x0=0.0001653 Normamps=106 length=148.0 units=m
New Line.mt3758863000 Bus1=bus_mt3579087 Bus2=bus_mt5027336 phases=3 r1=0.0001506 r0=0.00016539999999999998 x1=4.2499999999999996e-05 x0=0.0001653 Normamps=106 length=153.0 units=m
New Line.mt4500217651 Bus1=bus_mt3655820 Bus2=bus_mt79481133 phases=3 r1=0.0001506 r0=0.00016539999999999998 x1=4.2499999999999996e-05 x0=0.0001653 Normamps=106 length=42.0 units=m
New Line.mt3758863100 Bus1=bus_mt5027336 Bus2=bus_mt4819602 phases=3 r1=0.0001506 r0=0.00016539999999999998 x1=4.2499999999999996e-05 x0=0.0001653 Normamps=106 length=72.0 units=m
New Line.mt25590800 Bus1=bus_mt4593584 Bus2=bus_mt4561669 phases=3 r1=0.0001506 r0=0.00016539999999999998 x1=4.2499999999999996e-05 x0=0.0001653 Normamps=106 length=85.0 units=m
New Line.mt25588800 Bus1=bus_mt4477716 Bus2=bus_mt4593584 phases=3 r1=0.0001506 r0=0.00016539999999999998 x1=4.2499999999999996e-05 x0=0.0001653 Normamps=106 length=85.0 units=m
New Line.mt3758863200 Bus1=bus_mt4819602 Bus2=bus_mt4864760 phases=3 r1=0.0001506 r0=0.00016539999999999998 x1=4.2499999999999996e-05 x0=0.0001653 Normamps=106 length=62.0 units=m
New Line.mt3758863300 Bus1=bus_mt4864760 Bus2=bus_mt3597885 phases=3 r1=0.0001506 r0=0.00016539999999999998 x1=4.2499999999999996e-05 x0=0.0001653 Normamps=106 length=145.0 units=m
New Line.mt3758863400 Bus1=bus_mt3597885 Bus2=bus_mt3432623 phases=3 r1=0.0001506 r0=0.00016539999999999998 x1=4.2499999999999996e-05 x0=0.0001653 Normamps=106 length=145.0 units=m
New Line.mt3758863500 Bus1=bus_mt3432623 Bus2=bus_mt5338365 phases=3 r1=0.0001506 r0=0.00016539999999999998 x1=4.2499999999999996e-05 x0=0.0001653 Normamps=106 length=149.0 units=m
New Line.mt3758863600 Bus1=bus_mt5338365 Bus2=bus_mt5256551 phases=3 r1=0.0001506 r0=0.00016539999999999998 x1=4.2499999999999996e-05 x0=0.0001653 Normamps=106 length=118.0 units=m
New Line.mt3758863700 Bus1=bus_mt5256551 Bus2=bus_mt3541515 phases=3 r1=0.0001506 r0=0.00016539999999999998 x1=4.2499999999999996e-05 x0=0.0001653 Normamps=106 length=130.0 units=m
New Line.mt3758863800 Bus1=bus_mt3541515 Bus2=bus_mt4854732 phases=3 r1=0.0001506 r0=0.00016539999999999998 x1=4.2499999999999996e-05 x0=0.0001653 Normamps=106 length=141.0 units=m
New Line.mt3758863900 Bus1=bus_mt4854732 Bus2=bus_mt3453831 phases=3 r1=0.0001506 r0=0.00016539999999999998 x1=4.2499999999999996e-05 x0=0.0001653 Normamps=106 length=125.0 units=m
New Line.mt3758864000 Bus1=bus_mt3453831 Bus2=bus_mt4070511 phases=3 r1=0.0001506 r0=0.00016539999999999998 x1=4.2499999999999996e-05 x0=0.0001653 Normamps=106 length=133.0 units=m
New Line.mt3758864100 Bus1=bus_mt4070511 Bus2=bus_mt5015933 phases=3 r1=0.0001506 r0=0.00016539999999999998 x1=4.2499999999999996e-05 x0=0.0001653 Normamps=106 length=103.0 units=m
New Line.mt3758864200 Bus1=bus_mt5015933 Bus2=bus_mt35340452 phases=3 r1=0.0001506 r0=0.00016539999999999998 x1=4.2499999999999996e-05 x0=0.0001653 Normamps=106 length=86.0 units=m
New Line.mt3758864300 Bus1=bus_mt35340452 Bus2=bus_mt33143130 phases=3 r1=0.0001506 r0=0.00016539999999999998 x1=4.2499999999999996e-05 x0=0.0001653 Normamps=106 length=76.0 units=m
New Line.mt3758864400 Bus1=bus_mt33143130 Bus2=bus_mt5151706 phases=3 r1=0.0001506 r0=0.00016539999999999998 x1=4.2499999999999996e-05 x0=0.0001653 Normamps=106 length=131.0 units=m
New Line.mt23987400 Bus1=bus_mt8533327 Bus2=bus_mt8533332 phases=3 r1=0.0001506 r0=0.00016539999999999998 x1=4.2499999999999996e-05 x0=0.0001653 Normamps=106 length=90.0 units=m
New Line.mt3758864500 Bus1=bus_mt5151706 Bus2=bus_mt5065733 phases=3 r1=0.0001506 r0=0.00016539999999999998 x1=4.2499999999999996e-05 x0=0.0001653 Normamps=106 length=132.0 units=m
New Line.mt3758864600 Bus1=bus_mt5065733 Bus2=bus_mt4558955 phases=3 r1=0.0001506 r0=0.00016539999999999998 x1=4.2499999999999996e-05 x0=0.0001653 Normamps=106 length=105.0 units=m
New Line.mt3758864700 Bus1=bus_mt4558955 Bus2=bus_mt4567137 phases=3 r1=0.0001506 r0=0.00016539999999999998 x1=4.2499999999999996e-05 x0=0.0001653 Normamps=106 length=132.0 units=m
New Line.mt3758864800 Bus1=bus_mt4567137 Bus2=bus_mt5561300 phases=3 r1=0.0001506 r0=0.00016539999999999998 x1=4.2499999999999996e-05 x0=0.0001653 Normamps=106 length=127.0 units=m
New Line.mt3758864900 Bus1=bus_mt5561300 Bus2=bus_mt4813678 phases=3 r1=0.0001506 r0=0.00016539999999999998 x1=4.2499999999999996e-05 x0=0.0001653 Normamps=106 length=125.0 units=m
New Line.mt3758865000 Bus1=bus_mt4813678 Bus2=bus_mt4838830 phases=3 r1=0.0001506 r0=0.00016539999999999998 x1=4.2499999999999996e-05 x0=0.0001653 Normamps=106 length=95.0 units=m
New Line.mt3758865100 Bus1=bus_mt4838830 Bus2=bus_mt13419640 phases=3 r1=0.0001506 r0=0.00016539999999999998 x1=4.2499999999999996e-05 x0=0.0001653 Normamps=106 length=110.0 units=m
New Line.mt3758865200 Bus1=bus_mt13419640 Bus2=bus_mt5198606 phases=3 r1=0.0001506 r0=0.00016539999999999998 x1=4.2499999999999996e-05 x0=0.0001653 Normamps=106 length=104.0 units=m
New Line.mt3758865300 Bus1=bus_mt5198606 Bus2=bus_mt5447063 phases=3 r1=0.0001506 r0=0.00016539999999999998 x1=4.2499999999999996e-05 x0=0.0001653 Normamps=106 length=66.0 units=m
New Line.mt3758865400 Bus1=bus_mt5447063 Bus2=bus_mt4543690 phases=3 r1=0.0001506 r0=0.00016539999999999998 x1=4.2499999999999996e-05 x0=0.0001653 Normamps=106 length=79.0 units=m
New Line.mt25198600 Bus1=bus_mt4519840 Bus2=bus_mt4607505 phases=3 r1=0.0001506 r0=0.00016539999999999998 x1=4.2499999999999996e-05 x0=0.0001653 Normamps=106 length=143.0 units=m
New Line.mt25198500 Bus1=bus_mt4618161 Bus2=bus_mt4519840 phases=3 r1=0.0001506 r0=0.00016539999999999998 x1=4.2499999999999996e-05 x0=0.0001653 Normamps=106 length=140.0 units=m
New Line.mt25197800 Bus1=bus_mt5356679 Bus2=bus_mt5010044 phases=3 r1=0.0001506 r0=0.00016539999999999998 x1=4.2499999999999996e-05 x0=0.0001653 Normamps=106 length=54.0 units=m
New Line.mt4500199478 Bus1=bus_mt3937933 Bus2=bus_mt5572560 phases=3 r1=0.0001506 r0=0.00016539999999999998 x1=4.2499999999999996e-05 x0=0.0001653 Normamps=106 length=87.0 units=m
New Line.mt342442100 Bus1=bus_mt8756197 Bus2=bus_mt8756164 phases=3 r1=0.0001506 r0=0.00016539999999999998 x1=4.2499999999999996e-05 x0=0.0001653 Normamps=106 length=18.0 units=m
New Line.mt342441800 Bus1=bus_mt8756164 Bus2=bus_mt8756170 phases=3 r1=0.0001506 r0=0.00016539999999999998 x1=4.2499999999999996e-05 x0=0.0001653 Normamps=106 length=11.0 units=m
New Line.mt342441400 Bus1=bus_mt8756170 Bus2=bus_mt8756174 phases=3 r1=0.0001506 r0=0.00016539999999999998 x1=4.2499999999999996e-05 x0=0.0001653 Normamps=106 length=65.0 units=m
New Line.mt342441100 Bus1=bus_mt8756174 Bus2=bus_mt8756257 phases=3 r1=0.0001506 r0=0.00016539999999999998 x1=4.2499999999999996e-05 x0=0.0001653 Normamps=106 length=63.0 units=m
New Line.mt342440700 Bus1=bus_mt8756257 Bus2=bus_mt8756261 phases=3 r1=0.0001506 r0=0.00016539999999999998 x1=4.2499999999999996e-05 x0=0.0001653 Normamps=106 length=17.0 units=m
New Line.mt342440400 Bus1=bus_mt8756261 Bus2=bus_mt8756289 phases=3 r1=0.0001506 r0=0.00016539999999999998 x1=4.2499999999999996e-05 x0=0.0001653 Normamps=106 length=32.0 units=m
New Line.mt342440100 Bus1=bus_mt8756289 Bus2=bus_mt8756243 phases=3 r1=0.0001506 r0=0.00016539999999999998 x1=4.2499999999999996e-05 x0=0.0001653 Normamps=106 length=23.0 units=m
New Line.mt342439700 Bus1=bus_mt8756243 Bus2=bus_mt8756249 phases=3 r1=0.0001506 r0=0.00016539999999999998 x1=4.2499999999999996e-05 x0=0.0001653 Normamps=106 length=37.0 units=m
New Line.mt342439300 Bus1=bus_mt8756249 Bus2=bus_mt8756270 phases=3 r1=0.0001506 r0=0.00016539999999999998 x1=4.2499999999999996e-05 x0=0.0001653 Normamps=106 length=45.0 units=m
New Line.mt342438900 Bus1=bus_mt8756270 Bus2=bus_mt8756233 phases=3 r1=0.0001506 r0=0.00016539999999999998 x1=4.2499999999999996e-05 x0=0.0001653 Normamps=106 length=44.0 units=m
New Line.mt342438500 Bus1=bus_mt8756233 Bus2=bus_mt8756237 phases=3 r1=0.0001506 r0=0.00016539999999999998 x1=4.2499999999999996e-05 x0=0.0001653 Normamps=106 length=43.0 units=m
New Line.mt342438200 Bus1=bus_mt8756237 Bus2=bus_mt8756285 phases=3 r1=0.0001506 r0=0.00016539999999999998 x1=4.2499999999999996e-05 x0=0.0001653 Normamps=106 length=41.0 units=m
New Line.mt25042600 Bus1=bus_mt3813047 Bus2=bus_mt5625616 phases=3 r1=0.0001506 r0=0.00016539999999999998 x1=4.2499999999999996e-05 x0=0.0001653 Normamps=106 length=127.0 units=m
New Line.mt4500095892 Bus1=bus_mt72641622 Bus2=bus_mt8987683 phases=3 r1=0.0001506 r0=0.00016539999999999998 x1=4.2499999999999996e-05 x0=0.0001653 Normamps=106 length=8.0 units=m
New Line.mt24471200 Bus1=bus_mt5420516 Bus2=bus_mt5555471 phases=3 r1=0.0001506 r0=0.00016539999999999998 x1=4.2499999999999996e-05 x0=0.0001653 Normamps=106 length=113.0 units=m
New Line.mt24471100 Bus1=bus_mt5084593 Bus2=bus_mt5420516 phases=3 r1=0.0001506 r0=0.00016539999999999998 x1=4.2499999999999996e-05 x0=0.0001653 Normamps=106 length=94.0 units=m
New Line.mt24465200 Bus1=bus_mt9978500 Bus2=bus_mt4284253 phases=3 r1=0.0001506 r0=0.00016539999999999998 x1=4.2499999999999996e-05 x0=0.0001653 Normamps=106 length=43.0 units=m
New Line.mt25009200 Bus1=bus_mt5636816 Bus2=bus_mt5351571 phases=3 r1=0.0001506 r0=0.00016539999999999998 x1=4.2499999999999996e-05 x0=0.0001653 Normamps=106 length=103.0 units=m
New Line.mt4500107979 Bus1=bus_mt45194115 Bus2=bus_mt5570098 phases=3 r1=0.0001506 r0=0.00016539999999999998 x1=4.2499999999999996e-05 x0=0.0001653 Normamps=106 length=98.0 units=m
New Line.mt4500107980 Bus1=bus_mt4697366 Bus2=bus_mt45194115 phases=3 r1=0.0001506 r0=0.00016539999999999998 x1=4.2499999999999996e-05 x0=0.0001653 Normamps=106 length=81.0 units=m
New Line.mt4500108010 Bus1=bus_mt8313398 Bus2=bus_mt8313397 phases=3 r1=0.0001506 r0=0.00016539999999999998 x1=4.2499999999999996e-05 x0=0.0001653 Normamps=106 length=33.0 units=m
New Line.mt4500108325 Bus1=bus_mt8987667 Bus2=bus_mt8987673 phases=3 r1=0.0001506 r0=0.00016539999999999998 x1=4.2499999999999996e-05 x0=0.0001653 Normamps=106 length=17.0 units=m
New Line.mt307581000 Bus1=bus_mt3673369 Bus2=bus_mt3643705 phases=3 r1=0.0001506 r0=0.00016539999999999998 x1=4.2499999999999996e-05 x0=0.0001653 Normamps=106 length=74.0 units=m
New Line.mt307581700 Bus1=bus_mt4125682 Bus2=bus_mt3591442 phases=3 r1=0.0001506 r0=0.00016539999999999998 x1=4.2499999999999996e-05 x0=0.0001653 Normamps=106 length=121.0 units=m
New Line.mt307581800 Bus1=bus_mt3591442 Bus2=bus_mt3673363 phases=3 r1=0.0001506 r0=0.00016539999999999998 x1=4.2499999999999996e-05 x0=0.0001653 Normamps=106 length=67.0 units=m
New Line.mt307581900 Bus1=bus_mt3673363 Bus2=bus_mt3673372 phases=3 r1=0.0001506 r0=0.00016539999999999998 x1=4.2499999999999996e-05 x0=0.0001653 Normamps=106 length=71.0 units=m
New Line.mt307582000 Bus1=bus_mt3673372 Bus2=bus_mt3673369 phases=3 r1=0.0001506 r0=0.00016539999999999998 x1=4.2499999999999996e-05 x0=0.0001653 Normamps=106 length=78.0 units=m
New Line.mt307586300 Bus1=bus_mt108574078 Bus2=bus_mt15789615 phases=3 r1=0.0001506 r0=0.00016539999999999998 x1=4.2499999999999996e-05 x0=0.0001653 Normamps=106 length=96.0 units=m
New Line.mt335771300 Bus1=bus_mt4904110 Bus2=bus_mt5660086 phases=3 r1=0.0001506 r0=0.00016539999999999998 x1=4.2499999999999996e-05 x0=0.0001653 Normamps=106 length=93.0 units=m
New Line.mt337318800 Bus1=bus_mt8744817 Bus2=bus_mt8744811 phases=3 r1=0.0001506 r0=0.00016539999999999998 x1=4.2499999999999996e-05 x0=0.0001653 Normamps=106 length=40.0 units=m
New Line.mt337319400 Bus1=bus_mt8744807 Bus2=bus_mt8744803 phases=3 r1=0.0001506 r0=0.00016539999999999998 x1=4.2499999999999996e-05 x0=0.0001653 Normamps=106 length=41.0 units=m
New Line.mt25217600 Bus1=bus_mt5204591 Bus2=bus_mt4782034 phases=3 r1=0.0001506 r0=0.00016539999999999998 x1=4.2499999999999996e-05 x0=0.0001653 Normamps=106 length=36.0 units=m
New Line.mt25217500 Bus1=bus_mt4762418 Bus2=bus_mt5204591 phases=3 r1=0.0001506 r0=0.00016539999999999998 x1=4.2499999999999996e-05 x0=0.0001653 Normamps=106 length=43.0 units=m
New Line.mt25217400 Bus1=bus_mt4567255 Bus2=bus_mt4762418 phases=3 r1=0.0001506 r0=0.00016539999999999998 x1=4.2499999999999996e-05 x0=0.0001653 Normamps=106 length=45.0 units=m
New Line.mt25217300 Bus1=bus_mt3680423 Bus2=bus_mt4567255 phases=3 r1=0.0001506 r0=0.00016539999999999998 x1=4.2499999999999996e-05 x0=0.0001653 Normamps=106 length=51.0 units=m
New Line.mt1472252500 Bus1=bus_mt5489910 Bus2=bus_mt4413695 phases=3 r1=0.0001506 r0=0.00016539999999999998 x1=4.2499999999999996e-05 x0=0.0001653 Normamps=106 length=141.0 units=m
New Line.mt25217200 Bus1=bus_mt4725560 Bus2=bus_mt3680423 phases=3 r1=0.0001506 r0=0.00016539999999999998 x1=4.2499999999999996e-05 x0=0.0001653 Normamps=106 length=26.0 units=m
New Line.mt25217100 Bus1=bus_mt5693923 Bus2=bus_mt4725560 phases=3 r1=0.0001506 r0=0.00016539999999999998 x1=4.2499999999999996e-05 x0=0.0001653 Normamps=106 length=24.0 units=m
New Line.mt25217000 Bus1=bus_mt5652962 Bus2=bus_mt5693923 phases=3 r1=0.0001506 r0=0.00016539999999999998 x1=4.2499999999999996e-05 x0=0.0001653 Normamps=106 length=21.0 units=m
New Line.mt4500774339 Bus1=bus_mt5630755 Bus2=bus_mt4441878 phases=3 r1=0.0001506 r0=0.00016539999999999998 x1=4.2499999999999996e-05 x0=0.0001653 Normamps=106 length=18.0 units=m
New Line.mt818788300 Bus1=bus_mt12675314 Bus2=bus_mt8515656 phases=3 r1=0.0001506 r0=0.00016539999999999998 x1=4.2499999999999996e-05 x0=0.0001653 Normamps=106 length=96.0 units=m
New Line.mt801500500 Bus1=bus_mt12347573 Bus2=bus_mt12347570 phases=3 r1=0.0001506 r0=0.00016539999999999998 x1=4.2499999999999996e-05 x0=0.0001653 Normamps=106 length=52.0 units=m
New Line.mt801500000 Bus1=bus_mt12056070 Bus2=bus_mt12347582 phases=3 r1=0.0001506 r0=0.00016539999999999998 x1=4.2499999999999996e-05 x0=0.0001653 Normamps=106 length=21.0 units=m
New Line.mt801499900 Bus1=bus_mt12347582 Bus2=bus_mt12347578 phases=3 r1=0.0001506 r0=0.00016539999999999998 x1=4.2499999999999996e-05 x0=0.0001653 Normamps=106 length=70.0 units=m
New Line.mt25198800 Bus1=bus_mt5175058 Bus2=bus_mt5510381 phases=3 r1=0.0001506 r0=0.00016539999999999998 x1=4.2499999999999996e-05 x0=0.0001653 Normamps=106 length=132.0 units=m
New Line.mt25198700 Bus1=bus_mt4607505 Bus2=bus_mt5175058 phases=3 r1=0.0001506 r0=0.00016539999999999998 x1=4.2499999999999996e-05 x0=0.0001653 Normamps=106 length=140.0 units=m
New Line.mt4500109728 Bus1=bus_mt3673363 Bus2=bus_mt12882620 phases=3 r1=0.0001506 r0=0.00016539999999999998 x1=4.2499999999999996e-05 x0=0.0001653 Normamps=106 length=12.0 units=m
New Line.mt4500109705 Bus1=bus_mt5588378 Bus2=bus_mt5578520 phases=3 r1=0.0001506 r0=0.00016539999999999998 x1=4.2499999999999996e-05 x0=0.0001653 Normamps=106 length=11.0 units=m
New Line.mt2563357000 Bus1=bus_mt4440748 Bus2=bus_mt5553152 phases=3 r1=0.0001506 r0=0.00016539999999999998 x1=4.2499999999999996e-05 x0=0.0001653 Normamps=106 length=116.0 units=m
New Line.mt4500111601 Bus1=bus_mt25564401 Bus2=bus_mt12716382 phases=3 r1=0.0001506 r0=0.00016539999999999998 x1=4.2499999999999996e-05 x0=0.0001653 Normamps=106 length=16.0 units=m
New Line.mt4500112305 Bus1=bus_mt45011869 Bus2=bus_mt45011863 phases=3 r1=0.0001506 r0=0.00016539999999999998 x1=4.2499999999999996e-05 x0=0.0001653 Normamps=106 length=22.0 units=m
New Line.mt4500109565 Bus1=bus_mt43886536 Bus2=bus_mt12393781 phases=3 r1=0.0001506 r0=0.00016539999999999998 x1=4.2499999999999996e-05 x0=0.0001653 Normamps=106 length=32.0 units=m
New Line.mt2572953700 Bus1=bus_mt5406707 Bus2=bus_mt14555354 phases=3 r1=0.0001506 r0=0.00016539999999999998 x1=4.2499999999999996e-05 x0=0.0001653 Normamps=106 length=99.0 units=m
New Line.mt4500109464 Bus1=bus_mt12347578 Bus2=bus_mt12347573 phases=3 r1=0.0001506 r0=0.00016539999999999998 x1=4.2499999999999996e-05 x0=0.0001653 Normamps=106 length=13.0 units=m
New Line.mt25035300 Bus1=bus_mt5570098 Bus2=bus_mt5620862 phases=3 r1=0.0001506 r0=0.00016539999999999998 x1=4.2499999999999996e-05 x0=0.0001653 Normamps=106 length=107.0 units=m
New Line.mt25035000 Bus1=bus_mt4490486 Bus2=bus_mt4697366 phases=3 r1=0.0001506 r0=0.00016539999999999998 x1=4.2499999999999996e-05 x0=0.0001653 Normamps=106 length=90.0 units=m
New Line.mt961162400 Bus1=bus_mt4661840 Bus2=bus_mt12666590 phases=3 r1=0.0001506 r0=0.00016539999999999998 x1=4.2499999999999996e-05 x0=0.0001653 Normamps=106 length=33.0 units=m
New Line.mt961161900 Bus1=bus_mt12666525 Bus2=bus_mt12666599 phases=3 r1=0.0001506 r0=0.00016539999999999998 x1=4.2499999999999996e-05 x0=0.0001653 Normamps=106 length=66.0 units=m
New Line.mt961161800 Bus1=bus_mt12666533 Bus2=bus_mt12666525 phases=3 r1=0.0001506 r0=0.00016539999999999998 x1=4.2499999999999996e-05 x0=0.0001653 Normamps=106 length=75.0 units=m
New Line.mt961161300 Bus1=bus_mt12666537 Bus2=bus_mt12666533 phases=3 r1=0.0001506 r0=0.00016539999999999998 x1=4.2499999999999996e-05 x0=0.0001653 Normamps=106 length=51.0 units=m
New Line.mt961161000 Bus1=bus_mt12666541 Bus2=bus_mt12666537 phases=3 r1=0.0001506 r0=0.00016539999999999998 x1=4.2499999999999996e-05 x0=0.0001653 Normamps=106 length=50.0 units=m