New Line.ajustemt47~mt4500195131 bus1=bus_mt3655820 bus2=bus_mt79482414 phases=3 R1=0.0001506 R0=0.0001654 X1=4.25e-05 X0=0.0001653 length=81.6579243073634 units=m NormAmps=106.0
New Line.mt24740500~mt24740600 bus1=bus_mt43976709 bus2=bus_mt4999338 phases=3 R1=0.0001506 R0=0.0001654 X1=4.25e-05 X0=0.0001653 length=143.0 units=m NormAmps=106.0
New Line.mt25591000~mt25591100~mt25591200~mt25591300~mt25591400~mt3725347900~mt3725347400~mt3725346900 bus1=bus_mt5561249 bus2=bus_mt22318013 phases=3 R1=0.0001506 R0=0.0001654 X1=4.25e-05 X0=0.0001653 length=541.0 units=m NormAmps=106.0
New Line.mt4500108736~mt561099700~mt561100000~mt561100400 bus1=bus_mt25564286 bus2=bus_mt10640221 phases=3 R1=0.0001506 R0=0.0001654 X1=4.25e-05 X0=0.0001653 length=362.0 units=m NormAmps=106.0
New Line.mt3756304700 bus1=bus_mt5068208 bus2=bus_mt32626955 phases=3 R1=0.0001506 R0=0.00016539999999999998 X1=4.25e-05 X0=0.0001653 length=146.0 units=m NormAmps=106.0
New Line.mt25197900~mt25198000~mt25198100~mt25198200~mt25198300 bus1=bus_mt8771367 bus2=bus_mt8304896 phases=3 R1=0.0001506 R0=0.0001654 X1=4.25e-05 X0=0.0001653 length=415.0 units=m NormAmps=106.0
New Line.mt24747700 bus1=bus_mt5726702 bus2=bus_mt5675241 phases=3 R1=0.0001506 R0=0.00016539999999999998 X1=4.25e-05 X0=0.0001653 length=55.0 units=m NormAmps=106.0
New Line.mt3758865500~mt3758865600~mt3758865700~mt3758865800~mt3758865900 bus1=bus_mt4543690 bus2=bus_mt4614564 phases=3 R1=0.0001506 R0=0.0001654 X1=4.25e-05 X0=0.0001653 length=397.0 units=m NormAmps=106.0
New Line.mt24747600 bus1=bus_mt5173605 bus2=bus_mt5726702 phases=3 R1=0.0001506 R0=0.00016539999999999998 X1=4.25e-05 X0=0.0001653 length=52.0 units=m NormAmps=106.0
New Line.mt24747200~mt24747300~mt24747400~mt24747500 bus1=bus_mt5173605 bus2=bus_mt5068208 phases=3 R1=0.0001506 R0=0.0001654 X1=4.25e-05 X0=0.0001653 length=497.0 units=m NormAmps=106.0
New Line.mt24236100~mt24236200~mt24236300~mt24236400~mt24236500 bus1=bus_mt4824805 bus2=bus_mt4020522 phases=3 R1=0.0001506 R0=0.0001654 X1=4.25e-05 X0=0.0001653 length=513.0 units=m NormAmps=106.0
New Line.mt3761414100~mt25043300~mt25043400 bus1=bus_mt5358678 bus2=bus_mt4955679 phases=3 R1=0.0001506 R0=0.0001654 X1=4.25e-05 X0=0.0001653 length=443.0 units=m NormAmps=106.0
New Line.mt3725346400~mt25591900~mt3725350800~mt3725350900~mt25592100~mt25592200~mt25592300~mt25592400 bus1=bus_mt22318013 bus2=bus_mt4114773 phases=3 R1=0.0001506 R0=0.0001654 X1=4.25e-05 X0=0.0001653 length=583.0 units=m NormAmps=106.0
New Line.ajustemt81~mt4500906922~mt4500906921~mt4500906919~ajustemt89~mt4500906917~mt4500906915~mt4500906913~mt4500906911~mt4500906909~mt4500906873~mt24215700~mt24215800~mt24215900~mt24216000 bus1=bus_mt5011903 bus2=bus_mt4824805 phases=3 R1=0.0001506 R0=0.0001654 X1=4.25e-05 X0=0.0001653 length=864.320637016212 units=m NormAmps=106.0
New Line.mt1005237700 bus1=bus_mt12717052 bus2=bus_mt8530004 phases=3 R1=0.0001506 R0=0.00016539999999999998 X1=4.25e-05 X0=0.0001653 length=54.0 units=m NormAmps=106.0
New Line.mt460181500~mt24746900~mt24747000~mt24747100 bus1=bus_mt5378388 bus2=bus_mt5173605 phases=3 R1=0.0001506 R0=0.0001654 X1=4.25e-05 X0=0.0001653 length=481.0 units=m NormAmps=106.0
New Line.mt3758866000~mt25588500~mt25588600~mt25588700~mt25588800~mt25590800~mt25590900 bus1=bus_mt4614564 bus2=bus_mt5561249 phases=3 R1=0.0001506 R0=0.0001654 X1=4.25e-05 X0=0.0001653 length=616.0 units=m NormAmps=106.0
New Line.mt24741000 bus1=bus_mt3655820 bus2=bus_mt5230385 phases=3 R1=0.0001506 R0=0.00016539999999999998 X1=4.25e-05 X0=0.0001653 length=89.0 units=m NormAmps=106.0
New Line.mt24740900 bus1=bus_mt5654773 bus2=bus_mt3655820 phases=3 R1=0.0001506 R0=0.00016539999999999998 X1=4.25e-05 X0=0.0001653 length=133.0 units=m NormAmps=106.0
New Line.mt24740700~mt24740800 bus1=bus_mt4999338 bus2=bus_mt5654773 phases=3 R1=0.0001506 R0=0.0001654 X1=4.25e-05 X0=0.0001653 length=292.0 units=m NormAmps=106.0
New Line.mt4500217651 bus1=bus_mt3655820 bus2=bus_mt79481133 phases=3 R1=0.0001506 R0=0.00016539999999999998 X1=4.25e-05 X0=0.0001653 length=42.0 units=m NormAmps=106.0
New Line.mt805606400~mt3758862700~mt3758862800~mt3758862900~mt3758863000~mt3758863100 bus1=bus_mt12362171 bus2=bus_mt4819602 phases=3 R1=0.0001506 R0=0.0001654 X1=4.25e-05 X0=0.0001653 length=737.0 units=m NormAmps=106.0
New Line.mt3758863200~mt3758863300~mt3758863400~mt3758863500~mt3758863600~mt3758863700~mt3758863800~mt3758863900 bus1=bus_mt4819602 bus2=bus_mt3453831 phases=3 R1=0.0001506 R0=0.0001654 X1=4.25e-05 X0=0.0001653 length=1015.0 units=m NormAmps=106.0
New Line.mt3758864000~mt3758864100~mt3758864200 bus1=bus_mt3453831 bus2=bus_mt35340452 phases=3 R1=0.0001506 R0=0.0001654 X1=4.25e-05 X0=0.0001653 length=322.0 units=m NormAmps=106.0
New Line.mt1005237800~mt23987400 bus1=bus_mt12717052 bus2=bus_mt8533332 phases=3 R1=0.0001506 R0=0.0001654 X1=4.25e-05 X0=0.0001653 length=120.0 units=m NormAmps=106.0
New Line.mt3758864300~mt3758864400~mt3758864500~mt3758864600~mt3758864700~mt3758864800~mt3758864900 bus1=bus_mt35340452 bus2=bus_mt4813678 phases=3 R1=0.0001506 R0=0.0001654 X1=4.25e-05 X0=0.0001653 length=828.0 units=m NormAmps=106.0
New Line.mt3758865000~mt3758865100~mt3758865200~mt3758865300~mt3758865400 bus1=bus_mt4813678 bus2=bus_mt4543690 phases=3 R1=0.0001506 R0=0.0001654 X1=4.25e-05 X0=0.0001653 length=454.0 units=m NormAmps=106.0
New Line.mt342443300~mt342442900~mt342442500~mt342442100~mt342441800~mt342441400~mt342441100~mt342440700~mt342440400~mt342440100~mt342439700~mt342439300~mt342438900~mt342438500~mt342438200 bus1=bus_mt8756136 bus2=bus_mt8756285 phases=3 R1=0.0001506 R0=0.0001654 X1=4.25e-05 X0=0.0001653 length=553.0 units=m NormAmps=106.0
New Line.mt4500095892 bus1=bus_mt72641622 bus2=bus_mt8987683 phases=3 R1=0.0001506 R0=0.00016539999999999998 X1=4.25e-05 X0=0.0001653 length=8.0 units=m NormAmps=106.0
New Line.mt25009200 bus1=bus_mt5636816 bus2=bus_mt5351571 phases=3 R1=0.0001506 R0=0.00016539999999999998 X1=4.25e-05 X0=0.0001653 length=103.0 units=m NormAmps=106.0
New Line.mt25076700~mt25034600~mt25034700~mt25034800~mt25034900~mt25035000~mt4500107980 bus1=bus_mt5713481 bus2=bus_mt45194115 phases=3 R1=0.0001506 R0=0.0001654 X1=4.25e-05 X0=0.0001653 length=655.0 units=m NormAmps=106.0
New Line.mt307582000~mt307581000 bus1=bus_mt3673372 bus2=bus_mt3643705 phases=3 R1=0.0001506 R0=0.0001654 X1=4.25e-05 X0=0.0001653 length=152.0 units=m NormAmps=106.0
New Line.mt307581700~mt307581800 bus1=bus_mt4125682 bus2=bus_mt3673363 phases=3 R1=0.0001506 R0=0.0001654 X1=4.25e-05 X0=0.0001653 length=188.0 units=m NormAmps=106.0
New Line.mt307581900 bus1=bus_mt3673363 bus2=bus_mt3673372 phases=3 R1=0.0001506 R0=0.00016539999999999998 X1=4.25e-05 X0=0.0001653 length=71.0 units=m NormAmps=106.0
New Line.mt337319400 bus1=bus_mt8744807 bus2=bus_mt8744803 phases=3 R1=0.0001506 R0=0.00016539999999999998 X1=4.25e-05 X0=0.0001653 length=41.0 units=m NormAmps=106.0
New Line.mt25217400~mt25217500~mt25217600 bus1=bus_mt4567255 bus2=bus_mt4782034 phases=3 R1=0.0001506 R0=0.0001654 X1=4.25e-05 X0=0.0001653 length=124.0 units=m NormAmps=106.0
New Line.mt25217000~mt25217100~mt25217200~mt25217300 bus1=bus_mt5652962 bus2=bus_mt4567255 phases=3 R1=0.0001506 R0=0.0001654 X1=4.25e-05 X0=0.0001653 length=122.0 units=m NormAmps=106.0
New Line.mt801500000~mt801499900~mt4500109464~mt801500500 bus1=bus_mt12056070 bus2=bus_mt12347570 phases=3 R1=0.0001506 R0=0.0001654 X1=4.25e-05 X0=0.0001653 length=156.0 units=m NormAmps=106.0
New Line.mt25153900~mt122163200~mt25198500~mt25198600~mt25198700~mt25198800 bus1=bus_mt4817247 bus2=bus_mt5510381 phases=3 R1=0.0001506 R0=0.0001654 X1=4.25e-05 X0=0.0001653 length=717.0 units=m NormAmps=106.0
New Line.mt4500109728 bus1=bus_mt3673363 bus2=bus_mt12882620 phases=3 R1=0.0001506 R0=0.00016539999999999998 X1=4.25e-05 X0=0.0001653 length=12.0 units=m NormAmps=106.0
New Line.mt4500109705 bus1=bus_mt5588378 bus2=bus_mt5578520 phases=3 R1=0.0001506 R0=0.00016539999999999998 X1=4.25e-05 X0=0.0001653 length=11.0 units=m NormAmps=106.0
New Line.mt4500112305 bus1=bus_mt45011869 bus2=bus_mt45011863 phases=3 R1=0.0001506 R0=0.00016539999999999998 X1=4.25e-05 X0=0.0001653 length=22.0 units=m NormAmps=106.0
New Line.mt4500109565 bus1=bus_mt43886536 bus2=bus_mt12393781 phases=3 R1=0.0001506 R0=0.00016539999999999998 X1=4.25e-05 X0=0.0001653 length=32.0 units=m NormAmps=106.0
New Line.mt961162400~mt961157700~mt961158000~mt961158300~mt961158800~mt961159300~mt961159600~mt961159900~mt961160200~mt961160700~mt961161000~mt961161300~mt961161800~mt961161900 bus1=bus_mt4661840 bus2=bus_mt12666599 phases=3 R1=0.0001506 R0=0.0001654 X1=4.25e-05 X0=0.0001653 length=839.0 units=m NormAmps=106.0
New Line.mt26962300~mt26962400~mt26968200~mt708437100 bus1=bus_mt5488949 bus2=bus_mt11729825 phases=3 R1=0.0001506 R0=0.0001654 X1=4.25e-05 X0=0.0001653 length=278.0 units=m NormAmps=106.0
New Line.ajustemt87~mt4501056807~mt2143043300~mt24223700~mt24223800~mt24223900~mt24224000~mt24224100~mt24224200 bus1=bus_mt258910905 bus2=bus_mt4699410 phases=3 R1=0.0001506 R0=0.0001654 X1=4.25e-05 X0=0.0001653 length=828.062106694235 units=m NormAmps=106.0
New Line.mt437944900 bus1=bus_mt9503236 bus2=bus_mt9503232 phases=3 R1=0.0001506 R0=0.00016539999999999998 X1=4.25e-05 X0=0.0001653 length=22.0 units=m NormAmps=106.0
New Line.mt4500374480 bus1=bus_mt94817361 bus2=bus_mt5576458 phases=3 R1=0.0001506 R0=0.00016539999999999998 X1=4.25e-05 X0=0.0001653 length=26.0 units=m NormAmps=106.0
New Line.mt4500111053 bus1=bus_mt15363021 bus2=bus_mt9375232 phases=3 R1=0.0001506 R0=0.00016539999999999998 X1=4.25e-05 X0=0.0001653 length=62.0 units=m NormAmps=106.0
New Line.mt332337900~mt332335700~mt332336200 bus1=bus_mt5338515 bus2=bus_mt8871842 phases=3 R1=0.0001506 R0=0.0001654 X1=4.25e-05 X0=0.0001653 length=173.0 units=m NormAmps=106.0
New Line.mt743888000~mt743888400~mt743888800~mt743889200~mt743889600~mt743889900~mt743890300~mt743890600~mt4500412474~mt743890900~mt4500412483 bus1=bus_mt12063397 bus2=bus_mt12063354 phases=3 R1=0.0001506 R0=0.0001654 X1=4.25e-05 X0=0.0001653 length=794.0 units=m NormAmps=106.0
New Line.mt3728136000 bus1=bus_mt8680015 bus2=bus_mt26139005 phases=3 R1=0.0001506 R0=0.00016539999999999998 X1=4.25e-05 X0=0.0001653 length=47.0 units=m NormAmps=106.0
New Line.mt2143040500 bus1=bus_mt13919469 bus2=bus_mt13907345 phases=3 R1=0.0001506 R0=0.00016539999999999998 X1=4.25e-05 X0=0.0001653 length=68.0 units=m NormAmps=106.0
New Line.mt4500110991 bus1=bus_mt5407930 bus2=bus_mt15209163 phases=3 R1=0.0001506 R0=0.00016539999999999998 X1=4.25e-05 X0=0.0001653 length=37.0 units=m NormAmps=106.0
New Line.mt4500110985 bus1=bus_mt43975991 bus2=bus_mt15208447 phases=3 R1=0.0001506 R0=0.00016539999999999998 X1=4.25e-05 X0=0.0001653 length=53.0 units=m NormAmps=106.0
New Line.mt4500110984 bus1=bus_mt43975983 bus2=bus_mt15208439 phases=3 R1=0.0001506 R0=0.00016539999999999998 X1=4.25e-05 X0=0.0001653 length=55.0 units=m NormAmps=106.0
New Line.mt622641800 bus1=bus_mt10683896 bus2=bus_mt10776209 phases=3 R1=0.0001506 R0=0.00016539999999999998 X1=4.25e-05 X0=0.0001653 length=35.0 units=m NormAmps=106.0
New Line.mt1435218400 bus1=bus_mt44003431 bus2=bus_mt13126609 phases=3 R1=0.0001506 R0=0.00016539999999999998 X1=4.25e-05 X0=0.0001653 length=30.0 units=m NormAmps=106.0
New Line.mt2560874800~mt2560872000 bus1=bus_mt4734869 bus2=bus_mt14554459 phases=3 R1=0.0001506 R0=0.0001654 X1=4.25e-05 X0=0.0001653 length=208.0 units=m NormAmps=106.0
New Line.mt621323700 bus1=bus_mt9360863 bus2=bus_mt4551397 phases=3 R1=0.0001506 R0=0.00016539999999999998 X1=4.25e-05 X0=0.0001653 length=85.0 units=m NormAmps=106.0
New Line.mt23993800~mt618469000 bus1=bus_mt5267624 bus2=bus_mt10723322 phases=3 R1=0.0001506 R0=0.0001654 X1=4.25e-05 X0=0.0001653 length=105.0 units=m NormAmps=106.0
New Line.mt394030200~mt4500161266 bus1=bus_mt9007242 bus2=bus_mt11995030 phases=3 R1=0.0001506 R0=0.0001654 X1=4.25e-05 X0=0.0001653 length=67.0 units=m NormAmps=106.0
New Line.mt1027655100 bus1=bus_mt5244310 bus2=bus_mt12730073 phases=3 R1=0.0001506 R0=0.00016539999999999998 X1=4.25e-05 X0=0.0001653 length=27.0 units=m NormAmps=106.0
New Line.mt2334975500~mt2334975300~mt2607900600 bus1=bus_mt14181069 bus2=bus_mt14627567 phases=3 R1=0.0001506 R0=0.0001654 X1=4.25e-05 X0=0.0001653 length=363.0 units=m NormAmps=106.0
New Line.mt2609600000 bus1=bus_mt5552157 bus2=bus_mt5368421 phases=3 R1=0.0001506 R0=0.00016539999999999998 X1=4.25e-05 X0=0.0001653 length=84.0 units=m NormAmps=106.0
New Line.mt2022303200~mt2022303500 bus1=bus_mt13814135 bus2=bus_mt13814127 phases=3 R1=0.0001506 R0=0.0001654 X1=4.25e-05 X0=0.0001653 length=62.0 units=m NormAmps=106.0
New Line.mt3198962700~mt122797600 bus1=bus_mt17320040 bus2=bus_mt5716158 phases=3 R1=0.0001506 R0=0.0001654 X1=4.25e-05 X0=0.0001653 length=96.0 units=m NormAmps=106.0
New Line.mt927164600~mt927158900 bus1=bus_mt5436358 bus2=bus_mt5267624 phases=3 R1=0.0001506 R0=0.0001654 X1=4.25e-05 X0=0.0001653 length=565.0 units=m NormAmps=106.0
New Line.mt445798000~mt444236100~mt4500263782 bus1=bus_mt10443841 bus2=bus_mt85351589 phases=3 R1=0.0001506 R0=0.0001654 X1=4.25e-05 X0=0.0001653 length=416.0 units=m NormAmps=106.0
New Line.mt4500541118~mt24821000~mt4500541119~mt24820900 bus1=bus_mt4986451 bus2=bus_mt34540984 phases=3 R1=0.0001506 R0=0.0001654 X1=4.25e-05 X0=0.0001653 length=208.0 units=m NormAmps=106.0
New Line.mt3801448200~mt4500278942~mt4500278941~mt4500278940~mt4500278924 bus1=bus_mt5116420 bus2=bus_mt86931595 phases=3 R1=0.0001506 R0=0.0001654 X1=4.25e-05 X0=0.0001653 length=147.0 units=m NormAmps=106.0
New Line.mt24820100~mt24820200~mt24820300~mt24820400~mt24820500~mt24820600~mt24820700~mt24820800 bus1=bus_mt4998986 bus2=bus_mt34540983 phases=3 R1=0.0001506 R0=0.0001654 X1=4.25e-05 X0=0.0001653 length=420.0 units=m NormAmps=106.0
New Line.mt3326705700 bus1=bus_mt10443748 bus2=bus_mt16294509 phases=3 R1=0.0001506 R0=0.00016539999999999998 X1=4.25e-05 X0=0.0001653 length=53.0 units=m NormAmps=106.0
New Line.mt467339900~mt467340300~mt3325723700~mt3425773400~mt3425773500 bus1=bus_mt8799400 bus2=bus_mt10237738 phases=3 R1=0.0001506 R0=0.0001654 X1=4.25e-05 X0=0.0001653 length=327.0 units=m NormAmps=106.0
New Line.mt25132900~mt3448684500 bus1=bus_mt156138232 bus2=bus_mt17423821 phases=3 R1=0.0001506 R0=0.0001654 X1=4.25e-05 X0=0.0001653 length=71.0 units=m NormAmps=106.0
New Line.mt479336300 bus1=bus_mt12754875 bus2=bus_mt10087425 phases=3 R1=0.0001506 R0=0.00016539999999999998 X1=4.25e-05 X0=0.0001653 length=10.0 units=m NormAmps=106.0
New Line.mt24224300 bus1=bus_mt4699410 bus2=bus_mt3747223 phases=3 R1=0.0001506 R0=0.00016539999999999998 X1=4.25e-05 X0=0.0001653 length=115.0 units=m NormAmps=106.0
New Line.mt24940100~mt24940200~mt24940300~mt24940400~mt24940500~mt24940600~mt24940700~mt24940800 bus1=bus_mt4159150 bus2=bus_mt5343236 phases=3 R1=0.0001506 R0=0.0001654 X1=4.25e-05 X0=0.0001653 length=1056.0 units=m NormAmps=106.0
New Line.mt27070900~mt3454133100 bus1=bus_mt10041322 bus2=bus_mt12817866 phases=3 R1=0.0001506 R0=0.0001654 X1=4.25e-05 X0=0.0001653 length=177.0 units=m NormAmps=106.0
New Line.mt3454133200 bus1=bus_mt12817866 bus2=bus_mt10041336 phases=3 R1=0.0001506 R0=0.00016539999999999998 X1=4.25e-05 X0=0.0001653 length=72.0 units=m NormAmps=106.0
New Line.mt3454133300 bus1=bus_mt9007455 bus2=bus_mt9007447 phases=3 R1=0.0001506 R0=0.00016539999999999998 X1=4.25e-05 X0=0.0001653 length=29.0 units=m NormAmps=106.0
New Line.mt3454133400~mt3454133500 bus1=bus_mt9007447 bus2=bus_mt9007440 phases=3 R1=0.0001506 R0=0.0001654 X1=4.25e-05 X0=0.0001653 length=65.0 units=m NormAmps=106.0
New Line.mt24940000 bus1=bus_mt5191911 bus2=bus_mt4159150 phases=3 R1=0.0001506 R0=0.00016539999999999998 X1=4.25e-05 X0=0.0001653 length=94.0 units=m NormAmps=106.0
New Line.mt1717640500~mt24939600~mt24939700~mt24939800~mt24939900 bus1=bus_mt14628034 bus2=bus_mt5191911 phases=3 R1=0.0001506 R0=0.0001654 X1=4.25e-05 X0=0.0001653 length=596.0 units=m NormAmps=106.0
New Line.mt3454134800~mt3454134900 bus1=bus_mt8297778 bus2=bus_mt17098647 phases=3 R1=0.0001506 R0=0.0001654 X1=4.25e-05 X0=0.0001653 length=182.0 units=m NormAmps=106.0
New Line.mt2702444900~mt24915000~mt24915100~mt24915200~mt24915300 bus1=bus_mt3750613 bus2=bus_mt4551100 phases=3 R1=0.0001506 R0=0.0001654 X1=4.25e-05 X0=0.0001653 length=565.0 units=m NormAmps=106.0
New Line.mt24907900 bus1=bus_mt5495486 bus2=bus_mt4598164 phases=3 R1=0.0001506 R0=0.00016539999999999998 X1=4.25e-05 X0=0.0001653 length=83.0 units=m NormAmps=106.0
New Line.mt24899600~mt24899700~mt24899800~mt24899900~mt24900000~mt24900100 bus1=bus_mt5495486 bus2=bus_mt4560945 phases=3 R1=0.0001506 R0=0.0001654 X1=4.25e-05 X0=0.0001653 length=795.0 units=m NormAmps=106.0
New Line.mt24897100~mt24897200~mt26807600~mt26807700~mt24899200~mt24899300~mt24899400~mt24899500 bus1=bus_mt5561252 bus2=bus_mt5495486 phases=3 R1=0.0001506 R0=0.0001654 X1=4.25e-05 X0=0.0001653 length=621.0 units=m NormAmps=106.0
New Line.mt3793895400~mt3793892100~mt24896500~mt24896600~mt24896700~mt24896800~mt24896900~mt24897000 bus1=bus_mt43372182 bus2=bus_mt5561252 phases=3 R1=0.0001506 R0=0.0001654 X1=4.25e-05 X0=0.0001653 length=735.0 units=m NormAmps=106.0
New Line.mt24889200~mt24889300~mt24889400~mt24889500~mt24889600~mt24895400 bus1=bus_mt4667821 bus2=bus_mt5588475 phases=3 R1=0.0001506 R0=0.0001654 X1=4.25e-05 X0=0.0001653 length=554.0 units=m NormAmps=106.0
New Line.mt2572967200~mt24729200~mt24729300 bus1=bus_mt14555176 bus2=bus_mt5569617 phases=3 R1=0.0001506 R0=0.0001654 X1=4.25e-05 X0=0.0001653 length=295.0 units=m NormAmps=106.0
New Line.mt2022302900 bus1=bus_mt13814139 bus2=bus_mt13814135 phases=3 R1=0.0001506 R0=0.00016539999999999998 X1=4.25e-05 X0=0.0001653 length=31.0 units=m NormAmps=106.0
New Line.mt4501097372~mt2022302300~mt2022302600 bus1=bus_mt14706593 bus2=bus_mt13814139 phases=3 R1=0.0001506 R0=0.0001654 X1=4.25e-05 X0=0.0001653 length=120.0 units=m NormAmps=106.0
New Line.mt122107600 bus1=bus_mt4774742 bus2=bus_mt9360834 phases=3 R1=0.0001506 R0=0.00016539999999999998 X1=4.25e-05 X0=0.0001653 length=34.0 units=m NormAmps=106.0
New Line.mt24728700 bus1=bus_mt4512571 bus2=bus_mt5526613 phases=3 R1=0.0001506 R0=0.00016539999999999998 X1=4.25e-05 X0=0.0001653 length=80.0 units=m NormAmps=106.0
New Line.mt122032800 bus1=bus_mt5497361 bus2=bus_mt4000085 phases=3 R1=0.0001506 R0=0.00016539999999999998 X1=4.25e-05 X0=0.0001653 length=147.0 units=m NormAmps=106.0
New Line.mt24728500~mt24728600 bus1=bus_mt4516017 bus2=bus_mt4512571 phases=3 R1=0.0001506 R0=0.0001654 X1=4.25e-05 X0=0.0001653 length=236.0 units=m NormAmps=106.0
New Line.mt3728136100~mt24728300~mt24728400 bus1=bus_mt26139005 bus2=bus_mt4516017 phases=3 R1=0.0001506 R0=0.0001654 X1=4.25e-05 X0=0.0001653 length=254.0 units=m NormAmps=106.0
New Line.mt4500199478~mt24721700~mt24721800 bus1=bus_mt3937933 bus2=bus_mt5603127 phases=3 R1=0.0001506 R0=0.0001654 X1=4.25e-05 X0=0.0001653 length=275.0 units=m NormAmps=106.0
New Line.mt2572953700~mt2572953800~mt24721200~mt24721300~mt24721400~mt24721500 bus1=bus_mt5406707 bus2=bus_mt4939633 phases=3 R1=0.0001506 R0=0.0001654 X1=4.25e-05 X0=0.0001653 length=454.0 units=m NormAmps=106.0
New Line.mt444228300~mt444227600~mt444226900~mt444226600~mt444226300~mt444226000~mt444225500 bus1=bus_mt10443150 bus2=bus_mt10443126 phases=3 R1=0.0001506 R0=0.0001654 X1=4.25e-05 X0=0.0001653 length=742.0 units=m NormAmps=106.0
New Line.ajustemt18~mt444221400 bus1=bus_mt86931595 bus2=bus_mt10443647 phases=3 R1=0.0001506 R0=0.0001654 X1=4.25e-05 X0=0.0001653 length=50.6738670049632 units=m NormAmps=106.0
New Line.ajustemt69~mt4500949105~mt444217100~mt444217400~mt444217800 bus1=bus_mt10443639 bus2=bus_mt10443588 phases=3 R1=0.0001506 R0=0.0001654 X1=4.25e-05 X0=0.0001653 length=556.679464377507 units=m NormAmps=106.0
New Line.mt444216500~mt444216800 bus1=bus_mt10443639 bus2=bus_mt235964383 phases=3 R1=0.0001506 R0=0.0001654 X1=4.25e-05 X0=0.0001653 length=205.0 units=m NormAmps=106.0
New Line.mt444216200 bus1=bus_mt10443647 bus2=bus_mt10443639 phases=3 R1=0.0001506 R0=0.00016539999999999998 X1=4.25e-05 X0=0.0001653 length=33.0 units=m NormAmps=106.0
New Line.mt444215700~mt444215200 bus1=bus_mt10443647 bus2=bus_mt10443678 phases=3 R1=0.0001506 R0=0.0001654 X1=4.25e-05 X0=0.0001653 length=246.0 units=m NormAmps=106.0
New Line.mt545558200~mt444213600~mt444213100~mt444212300~mt444211900 bus1=bus_mt10443678 bus2=bus_mt44658980 phases=3 R1=0.0001506 R0=0.0001654 X1=4.25e-05 X0=0.0001653 length=428.0 units=m NormAmps=106.0
New Line.mt24720900~mt24721000 bus1=bus_mt3721988 bus2=bus_mt5406707 phases=3 R1=0.0001506 R0=0.0001654 X1=4.25e-05 X0=0.0001653 length=203.0 units=m NormAmps=106.0
New Line.mt566490400 bus1=bus_mt10446989 bus2=bus_mt10446983 phases=3 R1=0.0001506 R0=0.00016539999999999998 X1=4.25e-05 X0=0.0001653 length=31.0 units=m NormAmps=106.0
New Line.mt4501073767~mt4500881261~mt4500881259~mt4500881257~mt4501073769~mt4500862595~mt566489200~mt566489800 bus1=bus_mt92340114 bus2=bus_mt10446989 phases=3 R1=0.0001506 R0=0.0001654 X1=4.25e-05 X0=0.0001653 length=187.0 units=m NormAmps=106.0
New Line.mt566486100 bus1=bus_mt5656753 bus2=bus_mt4779753 phases=3 R1=0.0001506 R0=0.00016539999999999998 X1=4.25e-05 X0=0.0001653 length=89.0 units=m NormAmps=106.0
New Line.mt4500109447 bus1=bus_mt12313780 bus2=bus_mt12309658 phases=3 R1=0.0001506 R0=0.00016539999999999998 X1=4.25e-05 X0=0.0001653 length=17.0 units=m NormAmps=106.0
New Line.mt3801448100~mt4500991645 bus1=bus_mt86931595 bus2=bus_mt10443328 phases=3 R1=0.0001506 R0=0.0001654 X1=4.25e-05 X0=0.0001653 length=83.0 units=m NormAmps=106.0
New Line.mt24728800~mt24728900~mt24729000~mt2572967100 bus1=bus_mt5526613 bus2=bus_mt14555176 phases=3 R1=0.0001506 R0=0.0001654 X1=4.25e-05 X0=0.0001653 length=409.0 units=m NormAmps=106.0
New Line.mt24895500~mt122738600~mt25133800~mt25133900~mt25134000~mt25134100 bus1=bus_mt5588475 bus2=bus_mt3649831 phases=3 R1=0.0001506 R0=0.0001654 X1=4.25e-05 X0=0.0001653 length=788.0 units=m NormAmps=106.0
New Line.mt25133300~mt25133400~mt25133500 bus1=bus_mt8663643 bus2=bus_mt8663658 phases=3 R1=0.0001506 R0=0.0001654 X1=4.25e-05 X0=0.0001653 length=141.0 units=m NormAmps=106.0
New Line.mt3448684600~mt25133000 bus1=bus_mt17423821 bus2=bus_mt5617479 phases=3 R1=0.0001506 R0=0.0001654 X1=4.25e-05 X0=0.0001653 length=151.0 units=m NormAmps=106.0
New Line.mt25127200 bus1=bus_mt3912574 bus2=bus_mt5630755 phases=3 R1=0.0001506 R0=0.00016539999999999998 X1=4.25e-05 X0=0.0001653 length=64.0 units=m NormAmps=106.0
New Line.mt27611900 bus1=bus_mt8530007 bus2=bus_mt8530012 phases=3 R1=0.0001506 R0=0.00016539999999999998 X1=4.25e-05 X0=0.0001653 length=96.0 units=m NormAmps=106.0
New Line.mt3737497900~mt26924700~mt25082400 bus1=bus_mt14947357 bus2=bus_mt3622644 phases=3 R1=0.000135774233128834 R0=0.000150574233128834 X1=4.21042944785276e-05 X0=0.000164877914110429 length=163.0 units=m NormAmps=106.0
New Line.mt740724200~mt740724900~mt740725200~mt740725500~mt740725800~mt740726300 bus1=bus_mt12747569 bus2=bus_mt12056070 phases=3 R1=0.0001506 R0=0.0001654 X1=4.25e-05 X0=0.0001653 length=414.0 units=m NormAmps=106.0
New Line.mt25081700~mt25081800~mt25081900~mt25082000 bus1=bus_mt15166864 bus2=bus_mt100541100 phases=3 R1=0.0001506 R0=0.0001654 X1=4.25e-05 X0=0.0001653 length=521.0 units=m NormAmps=106.0
New Line.mt122064400~mt25077200~mt25077300 bus1=bus_mt5576972 bus2=bus_mt5677608 phases=3 R1=0.0001506 R0=0.0001654 X1=4.25e-05 X0=0.0001653 length=349.0 units=m NormAmps=106.0
New Line.mt4500109423 bus1=bus_mt12570723 bus2=bus_mt12278963 phases=3 R1=0.0001506 R0=0.00016539999999999998 X1=4.25e-05 X0=0.0001653 length=31.0 units=m NormAmps=106.0
New Line.mt4500111601~mt1005260300 bus1=bus_mt25564401 bus2=bus_mt8530007 phases=3 R1=0.0001506 R0=0.0001654 X1=4.25e-05 X0=0.0001653 length=35.0 units=m NormAmps=106.0
New Line.mt4500109406 bus1=bus_mt12257242 bus2=bus_mt12257247 phases=3 R1=0.0001506 R0=0.00016539999999999998 X1=4.25e-05 X0=0.0001653 length=26.0 units=m NormAmps=106.0
New Line.mt4500109312 bus1=bus_mt5255930 bus2=bus_mt12107276 phases=3 R1=0.0001506 R0=0.00016539999999999998 X1=4.25e-05 X0=0.0001653 length=20.0 units=m NormAmps=106.0
New Line.mt4500134156 bus1=bus_mt8767747 bus2=bus_mt74113460 phases=3 R1=0.0001506 R0=0.00016539999999999998 X1=4.25e-05 X0=0.0001653 length=24.0 units=m NormAmps=106.0
New Line.mt4500109272 bus1=bus_mt8489332 bus2=bus_mt8489335 phases=3 R1=0.0001506 R0=0.00016539999999999998 X1=4.25e-05 X0=0.0001653 length=19.0 units=m NormAmps=106.0
New Line.mt4500109248 bus1=bus_mt11987606 bus2=bus_mt11987631 phases=3 R1=0.0001506 R0=0.00016539999999999998 X1=4.25e-05 X0=0.0001653 length=65.0 units=m NormAmps=106.0
New Line.mt25076300~mt25076400~mt25076500~mt25076600 bus1=bus_mt44659025 bus2=bus_mt5713481 phases=3 R1=0.0001506 R0=0.0001654 X1=4.25e-05 X0=0.0001653 length=320.0 units=m NormAmps=106.0
New Line.mt3801173400~mt335771300~mt25000600~mt25000700~mt25000800~mt25069800~mt25070000~mt25069900~mt25070100~mt25070200~mt2689555500~mt25076100~mt25076200 bus1=bus_mt5679650 bus2=bus_mt44659025 phases=3 R1=0.0001506 R0=0.0001654 X1=4.25e-05 X0=0.0001653 length=1235.0 units=m NormAmps=106.0
New Line.mt3088336200~mt3088335900~mt25061000 bus1=bus_mt8691217 bus2=bus_mt8691203 phases=3 R1=0.0001506 R0=0.0001654 X1=4.25e-05 X0=0.0001653 length=268.0 units=m NormAmps=106.0
New Line.mt307614600~mt436132800~mt27043100~mt27048900~mt27049000~mt27049100~mt27049200~mt27049300~mt27049400 bus1=bus_mt4392599 bus2=bus_mt3644596 phases=3 R1=0.0001506 R0=0.0001654 X1=4.25e-05 X0=0.0001653 length=1079.0 units=m NormAmps=106.0
New Line.mt4500107979~mt25035300~mt25035400 bus1=bus_mt45194115 bus2=bus_mt5489910 phases=3 R1=0.0001506 R0=0.0001654 X1=4.25e-05 X0=0.0001653 length=320.0 units=m NormAmps=106.0
New Line.mt24555500 bus1=bus_mt4976200 bus2=bus_mt3850865 phases=3 R1=0.0001506 R0=0.00016539999999999998 X1=4.25e-05 X0=0.0001653 length=38.0 units=m NormAmps=106.0
New Line.mt24555100~mt24555200~mt24555300~mt24555400 bus1=bus_mt5691645 bus2=bus_mt4976200 phases=3 R1=0.0001506 R0=0.0001654 X1=4.25e-05 X0=0.0001653 length=194.0 units=m NormAmps=106.0
New Line.mt24545100~mt24545200~mt24545300~mt24554900~mt24555000 bus1=bus_mt277916213 bus2=bus_mt5691645 phases=3 R1=0.0001506 R0=0.0001654 X1=4.25e-05 X0=0.0001653 length=427.0 units=m NormAmps=106.0
New Line.mt24537600~mt24537700 bus1=bus_mt3714922 bus2=bus_mt8304004 phases=3 R1=0.0001506 R0=0.0001654 X1=4.25e-05 X0=0.0001653 length=224.0 units=m NormAmps=106.0
New Line.mt2762892200 bus1=bus_mt4976200 bus2=bus_mt14826744 phases=3 R1=0.0001506 R0=0.00016539999999999998 X1=4.25e-05 X0=0.0001653 length=13.0 units=m NormAmps=106.0
New Line.mt2762890300~mt2762890600~mt2762890900~mt2762891200~mt2762891600 bus1=bus_mt14826744 bus2=bus_mt14826721 phases=3 R1=0.0001506 R0=0.0001654 X1=4.25e-05 X0=0.0001653 length=165.0 units=m NormAmps=106.0
New Line.mt122018200~mt25043600~mt25053200~mt25053300~mt25053400 bus1=bus_mt5630379 bus2=bus_mt5608729 phases=3 R1=0.0001506 R0=0.0001654 X1=4.25e-05 X0=0.0001653 length=493.0 units=m NormAmps=106.0
New Line.mt24045000~mt122093200~mt24045200~mt24045300~mt24045400~mt24045500 bus1=bus_mt10175145 bus2=bus_mt5538636 phases=3 R1=0.0001506 R0=0.0001654 X1=4.25e-05 X0=0.0001653 length=523.0 units=m NormAmps=106.0
New Line.mt4500053067 bus1=bus_mt48546341 bus2=bus_mt67616873 phases=3 R1=0.0001506 R0=0.00016539999999999998 X1=4.25e-05 X0=0.0001653 length=79.0 units=m NormAmps=106.0
New Line.mt4500053068 bus1=bus_mt3754815 bus2=bus_mt48546341 phases=3 R1=0.0001506 R0=0.00016539999999999998 X1=4.25e-05 X0=0.0001653 length=28.0 units=m NormAmps=106.0
New Line.mt122095400~mt24479100~mt24479200 bus1=bus_mt5647830 bus2=bus_mt5185007 phases=3 R1=0.0001506 R0=0.0001654 X1=4.25e-05 X0=0.0001653 length=236.0 units=m NormAmps=106.0
New Line.mt26910900 bus1=bus_mt3745321 bus2=bus_mt4804661 phases=3 R1=0.0001506 R0=0.00016539999999999998 X1=4.25e-05 X0=0.0001653 length=18.0 units=m NormAmps=106.0
New Line.mt24472000~mt24472100~mt24472200~mt24472300~mt24472400 bus1=bus_mt4551397 bus2=bus_mt4766824 phases=3 R1=0.0001506 R0=0.0001654 X1=4.25e-05 X0=0.0001653 length=409.0 units=m NormAmps=106.0
New Line.mt24465200~mt507567000~mt24471100~mt24471200~mt24471300~mt24471400~mt24471500~mt24471600~mt24471700~mt24471800 bus1=bus_mt9978500 bus2=bus_mt5379931 phases=3 R1=0.0001506 R0=0.0001654 X1=4.25e-05 X0=0.0001653 length=794.0 units=m NormAmps=106.0
New Line.mt25008300~mt25076800~mt25076900~mt25077000~mt26596000 bus1=bus_mt3634095 bus2=bus_mt4639251 phases=3 R1=0.0001506 R0=0.0001654 X1=4.25e-05 X0=0.0001653 length=439.0 units=m NormAmps=106.0
New Line.mt4501097374~mt4501097375 bus1=bus_mt14706602 bus2=bus_mt28413267 phases=3 R1=0.0001506 R0=0.0001654 X1=4.25e-05 X0=0.0001653 length=111.0 units=m NormAmps=106.0
New Line.mt4501097376 bus1=bus_mt28413267 bus2=bus_mt14706593 phases=3 R1=0.0001506 R0=0.00016539999999999998 X1=4.25e-05 X0=0.0001653 length=65.0 units=m NormAmps=106.0
New Line.mt3728611900~mt3728606800~mt25042600~mt25042700~mt25042800 bus1=bus_mt25199020 bus2=bus_mt5206468 phases=3 R1=0.0001506 R0=0.0001654 X1=4.25e-05 X0=0.0001653 length=445.0 units=m NormAmps=106.0
New Line.mt342444900~mt492612700~mt342444400~mt342444000~mt342443600 bus1=bus_mt4782034 bus2=bus_mt8756136 phases=3 R1=0.0001506 R0=0.0001654 X1=4.25e-05 X0=0.0001653 length=190.0 units=m NormAmps=106.0
New Line.mt2022301200 bus1=bus_mt14706593 bus2=bus_mt14706590 phases=3 R1=0.0001506 R0=0.00016539999999999998 X1=4.25e-05 X0=0.0001653 length=52.0 units=m NormAmps=106.0
New Line.mt2022299400~mt2022299700 bus1=bus_mt5617479 bus2=bus_mt14706602 phases=3 R1=0.0001506 R0=0.0001654 X1=4.25e-05 X0=0.0001653 length=185.0 units=m NormAmps=106.0
New Line.mt122121200~mt337318800~mt3756767500 bus1=bus_mt25564294 bus2=bus_mt8744807 phases=3 R1=0.0001506 R0=0.0001654 X1=4.25e-05 X0=0.0001653 length=117.0 units=m NormAmps=106.0