New Load.BT529366 Bus1=bus_bt_C529366.1 phases=1 kW=0.5 pf=0.98 kv=0.22
New Load.BT45182 Bus1=bus_bt_C45182.3 phases=1 kW=0.5 pf=0.98 kv=0.22
New Load.BT45771 Bus1=bus_bt_C45771.1 phases=1 kW=0.5 pf=0.98 kv=0.22
New Load.BT54296 Bus1=bus_bt_C54296.3 phases=1 kW=0.5 pf=0.98 kv=0.22
New Load.BT54372 Bus1=bus_bt_C54372.2 phases=1 kW=0.5 pf=0.98 kv=0.22
New Load.BT45026 Bus1=bus_bt_C45026.2 phases=1 kW=0.5 pf=0.98 kv=0.22
New Load.BT371407 Bus1=bus_bt_C371407.2 phases=1 kW=0.5 pf=0.98 kv=0.22
New Load.BT371346 Bus1=bus_bt_C371346.2 phases=1 kW=0.5 pf=0.98 kv=0.22
New Load.BT371353 Bus1=bus_bt_C371353.1 phases=1 kW=0.5 pf=0.98 kv=0.22
New Load.BT375433 Bus1=bus_bt_C375433.2 phases=1 kW=0.5 pf=0.98 kv=0.22
New Load.BT375438 Bus1=bus_bt_C375438.3 phases=1 kW=0.5 pf=0.98 kv=0.22
New Load.BT321422 Bus1=bus_bt_C321422.1 phases=1 kW=0.5 pf=0.98 kv=0.22
New Load.BT520466 Bus1=bus_bt_C520466.1 phases=1 kW=0.5 pf=0.98 kv=0.22
New Load.BT46713 Bus1=bus_bt_C46713.2 phases=1 kW=0.5 pf=0.98 kv=0.22
New Load.BT478909 Bus1=bus_bt_C478909.3 phases=1 kW=0.5 pf=0.98 kv=0.22
New Load.BT321016 Bus1=bus_bt_C321016.1 phases=1 kW=0.5 pf=0.98 kv=0.22
New Load.BT45425 Bus1=bus_bt_C45425.3 phases=1 kW=0.5 pf=0.98 kv=0.22
New Load.BT45280 Bus1=bus_bt_C45280.3 phases=1 kW=0.5 pf=0.98 kv=0.22
New Load.BT371385 Bus1=bus_bt_C371385.2 phases=1 kW=0.5 pf=0.98 kv=0.22
New Load.BT371386 Bus1=bus_bt_C371386.2 phases=1 kW=0.5 pf=0.98 kv=0.22
New Load.BT233125 Bus1=bus_bt_C233125.2 phases=1 kW=0.5 pf=0.98 kv=0.22
New Load.BT331194 Bus1=bus_bt_C331194.3 phases=1 kW=0.5 pf=0.98 kv=0.22
New Load.BT46958 Bus1=bus_bt_C46958.2 phases=1 kW=0.5 pf=0.98 kv=0.22
New Load.BT445225 Bus1=bus_bt_C445225.1 phases=1 kW=0.5 pf=0.98 kv=0.22
New Load.BT414712 Bus1=bus_bt_C414712.3 phases=1 kW=0.5 pf=0.98 kv=0.22
New Load.BT294078 Bus1=bus_bt_C294078.3 phases=1 kW=0.5 pf=0.98 kv=0.22
New Load.BT331788 Bus1=bus_bt_C331788.3 phases=1 kW=0.5 pf=0.98 kv=0.22
New Load.BT326275 Bus1=bus_bt_C326275.2 phases=1 kW=0.5 pf=0.98 kv=0.22
New Load.BT24854 Bus1=bus_bt_C24854.2 phases=1 kW=0.5 pf=0.98 kv=0.22
New Load.BT25316 Bus1=bus_bt_C25316.2 phases=1 kW=0.5 pf=0.98 kv=0.22
New Load.BT398644 Bus1=bus_bt_C398644.2 phases=1 kW=0.5 pf=0.98 kv=0.22
New Load.BT398649 Bus1=bus_bt_C398649.2 phases=1 kW=0.5 pf=0.98 kv=0.22
New Load.BT399175 Bus1=bus_bt_C399175.3 phases=1 kW=0.5 pf=0.98 kv=0.22
New Load.BT399177 Bus1=bus_bt_C399177.3 phases=1 kW=0.5 pf=0.98 kv=0.22
New Load.BT399176 Bus1=bus_bt_C399176.1 phases=1 kW=0.5 pf=0.98 kv=0.22
New Load.BT383955 Bus1=bus_bt_C383955.2 phases=1 kW=0.5 pf=0.98 kv=0.22
New Load.BT22711 Bus1=bus_bt_C22711.2 phases=1 kW=0.5 pf=0.98 kv=0.22
New Load.BT334645 Bus1=bus_bt_C334645.2 phases=1 kW=0.5 pf=0.98 kv=0.22
New Load.BT364960 Bus1=bus_bt_C364960.1 phases=1 kW=0.5 pf=0.98 kv=0.22
New Load.BT364981 Bus1=bus_bt_C364981.1 phases=1 kW=0.5 pf=0.98 kv=0.22
New Load.BT66450 Bus1=bus_bt_C66450.3 phases=1 kW=0.5 pf=0.98 kv=0.22
New Load.BT514525 Bus1=bus_bt_C514525.1 phases=1 kW=0.5 pf=0.98 kv=0.22
New Load.BT520881 Bus1=bus_bt_C520881.2 phases=1 kW=0.5 pf=0.98 kv=0.22
New Load.BT523614 Bus1=bus_bt_C523614.2 phases=1 kW=0.5 pf=0.98 kv=0.22
New Load.BT25184 Bus1=bus_bt_C25184.1 phases=1 kW=0.5 pf=0.98 kv=0.22
New Load.BT25186 Bus1=bus_bt_C25186.3 phases=1 kW=0.5 pf=0.98 kv=0.22
New Load.BT25181 Bus1=bus_bt_C25181.2 phases=1 kW=0.5 pf=0.98 kv=0.22
New Load.BT25161 Bus1=bus_bt_C25161.3 phases=1 kW=0.5 pf=0.98 kv=0.22
New Load.BT25162 Bus1=bus_bt_C25162.2 phases=1 kW=0.5 pf=0.98 kv=0.22
New Load.BT25138 Bus1=bus_bt_C25138.2 phases=1 kW=0.5 pf=0.98 kv=0.22
New Load.BT437080 Bus1=bus_bt_C437080.3 phases=1 kW=0.5 pf=0.98 kv=0.22
New Load.BT347790 Bus1=bus_bt_C347790.1 phases=1 kW=0.5 pf=0.98 kv=0.22
New Load.BT24788 Bus1=bus_bt_C24788.3 phases=1 kW=0.5 pf=0.98 kv=0.22
New Load.BT24787 Bus1=bus_bt_C24787.3 phases=1 kW=0.5 pf=0.98 kv=0.22
New Load.BT24895 Bus1=bus_bt_C24895.2 phases=1 kW=0.5 pf=0.98 kv=0.22
New Load.BT396765 Bus1=bus_bt_C396765.1 phases=1 kW=0.5 pf=0.98 kv=0.22
New Load.BT463855 Bus1=bus_bt_C463855.2 phases=1 kW=0.5 pf=0.98 kv=0.22
New Load.BT393185 Bus1=bus_bt_C393185.2 phases=1 kW=0.5 pf=0.98 kv=0.22
New Load.BT24541 Bus1=bus_bt_C24541.1 phases=1 kW=0.5 pf=0.98 kv=0.22
New Load.BT482956 Bus1=bus_bt_C482956.1 phases=1 kW=0.5 pf=0.98 kv=0.22
New Load.BT371838 Bus1=bus_bt_C371838.3 phases=1 kW=0.5 pf=0.98 kv=0.22
New Load.BT362431 Bus1=bus_bt_C362431.1 phases=1 kW=0.5 pf=0.98 kv=0.22
New Load.BT466209 Bus1=bus_bt_C466209.2 phases=1 kW=0.5 pf=0.98 kv=0.22
New Load.BT461341 Bus1=bus_bt_C461341.1 phases=1 kW=0.5 pf=0.98 kv=0.22
New Load.BT461342 Bus1=bus_bt_C461342.3 phases=1 kW=0.5 pf=0.98 kv=0.22
New Load.BT431164 Bus1=bus_bt_C431164.1 phases=1 kW=0.5 pf=0.98 kv=0.22
New Load.BT467598 Bus1=bus_bt_C467598.3 phases=1 kW=0.5 pf=0.98 kv=0.22
New Load.BT364499 Bus1=bus_bt_C364499.1 phases=1 kW=0.5 pf=0.98 kv=0.22
New Load.BT488507 Bus1=bus_bt_C488507.3 phases=1 kW=0.5 pf=0.98 kv=0.22
New Load.BT46181 Bus1=bus_bt_C46181.2 phases=1 kW=0.5 pf=0.98 kv=0.22
New Load.BT46245 Bus1=bus_bt_C46245.2 phases=1 kW=0.5 pf=0.98 kv=0.22
New Load.BT455935 Bus1=bus_bt_C455935.2 phases=1 kW=0.5 pf=0.98 kv=0.22
New Load.BT46029 Bus1=bus_bt_C46029.3 phases=1 kW=0.5 pf=0.98 kv=0.22
New Load.BT54674 Bus1=bus_bt_C54674.3 phases=1 kW=0.5 pf=0.98 kv=0.22
New Load.BT413367 Bus1=bus_bt_C413367.3 phases=1 kW=0.5 pf=0.98 kv=0.22
New Load.BT520442 Bus1=bus_bt_C520442.2 phases=1 kW=0.5 pf=0.98 kv=0.22
New Load.BT517026 Bus1=bus_bt_C517026.3 phases=1 kW=0.5 pf=0.98 kv=0.22
New Load.BT499235 Bus1=bus_bt_C499235.1 phases=1 kW=0.5 pf=0.98 kv=0.22
New Load.BT25467 Bus1=bus_bt_C25467.2 phases=1 kW=0.5 pf=0.98 kv=0.22
New Load.BT531921 Bus1=bus_bt_C531921.2 phases=1 kW=0.5 pf=0.98 kv=0.22
New Load.BT413410 Bus1=bus_bt_C413410.3 phases=1 kW=0.5 pf=0.98 kv=0.22
New Load.BT413449 Bus1=bus_bt_C413449.1 phases=1 kW=0.5 pf=0.98 kv=0.22
New Load.BT278693 Bus1=bus_bt_C278693.1 phases=1 kW=0.5 pf=0.98 kv=0.22
New Load.BT45972 Bus1=bus_bt_C45972.2 phases=1 kW=0.5 pf=0.98 kv=0.22
New Load.BT485319 Bus1=bus_bt_C485319.2 phases=1 kW=0.5 pf=0.98 kv=0.22
New Load.BT461335 Bus1=bus_bt_C461335.1 phases=1 kW=0.5 pf=0.98 kv=0.22
New Load.BT461349 Bus1=bus_bt_C461349.1 phases=1 kW=0.5 pf=0.98 kv=0.22
New Load.BT461348 Bus1=bus_bt_C461348.2 phases=1 kW=0.5 pf=0.98 kv=0.22
New Load.BT450950 Bus1=bus_bt_C450950.3 phases=1 kW=0.5 pf=0.98 kv=0.22
New Load.BT411994 Bus1=bus_bt_C411994.2 phases=1 kW=0.5 pf=0.98 kv=0.22
New Load.BT534129 Bus1=bus_bt_C534129.2 phases=1 kW=0.5 pf=0.98 kv=0.22
New Load.BT535472 Bus1=bus_bt_C535472.1 phases=1 kW=0.5 pf=0.98 kv=0.22
New Load.BT535181 Bus1=bus_bt_C535181.2 phases=1 kW=0.5 pf=0.98 kv=0.22
New Load.BT538205 Bus1=bus_bt_C538205.1 phases=1 kW=0.5 pf=0.98 kv=0.22
New Load.BT542388 Bus1=bus_bt_C542388.2 phases=1 kW=0.5 pf=0.98 kv=0.22
New Load.BT506312 Bus1=bus_bt_C506312.2 phases=1 kW=0.5 pf=0.98 kv=0.22
New Load.BT66320 Bus1=bus_bt_C66320.2 phases=1 kW=0.5 pf=0.98 kv=0.22
New Load.BT54521 Bus1=bus_bt_C54521.3 phases=1 kW=0.5 pf=0.98 kv=0.22
New Load.BT476904 Bus1=bus_bt_C476904.1 phases=1 kW=0.5 pf=0.98 kv=0.22
New Load.BT477527 Bus1=bus_bt_C477527.2 phases=1 kW=0.5 pf=0.98 kv=0.22
New Load.BT476898 Bus1=bus_bt_C476898.1 phases=1 kW=0.5 pf=0.98 kv=0.22
New Load.BT488450 Bus1=bus_bt_C488450.2 phases=1 kW=0.5 pf=0.98 kv=0.22
New Load.BT499335 Bus1=bus_bt_C499335.3 phases=1 kW=0.5 pf=0.98 kv=0.22
New Load.BT502470 Bus1=bus_bt_C502470.3 phases=1 kW=0.5 pf=0.98 kv=0.22
New Load.BT509858 Bus1=bus_bt_C509858.2 phases=1 kW=0.5 pf=0.98 kv=0.22
New Load.BT45495 Bus1=bus_bt_C45495.3 phases=1 kW=0.5 pf=0.98 kv=0.22
New Load.BT466382 Bus1=bus_bt_C466382.2 phases=1 kW=0.5 pf=0.98 kv=0.22
New Load.BT54275 Bus1=bus_bt_C54275.1 phases=1 kW=0.5 pf=0.98 kv=0.22
New Load.BT54362 Bus1=bus_bt_C54362.2 phases=1 kW=0.5 pf=0.98 kv=0.22
New Load.BT54370 Bus1=bus_bt_C54370.2 phases=1 kW=0.5 pf=0.98 kv=0.22
New Load.BT54440 Bus1=bus_bt_C54440.3 phases=1 kW=0.5 pf=0.98 kv=0.22
New Load.BT54442 Bus1=bus_bt_C54442.1 phases=1 kW=0.5 pf=0.98 kv=0.22
New Load.BT54480 Bus1=bus_bt_C54480.2 phases=1 kW=0.5 pf=0.98 kv=0.22
New Load.BT54506 Bus1=bus_bt_C54506.3 phases=1 kW=0.5 pf=0.98 kv=0.22
New Load.BT54502 Bus1=bus_bt_C54502.3 phases=1 kW=0.5 pf=0.98 kv=0.22
New Load.BT54500 Bus1=bus_bt_C54500.1 phases=1 kW=0.5 pf=0.98 kv=0.22
New Load.BT54488 Bus1=bus_bt_C54488.1 phases=1 kW=0.5 pf=0.98 kv=0.22
New Load.BT54486 Bus1=bus_bt_C54486.2 phases=1 kW=0.5 pf=0.98 kv=0.22
New Load.BT375248 Bus1=bus_bt_C375248.2 phases=1 kW=0.5 pf=0.98 kv=0.22
New Load.BT375280 Bus1=bus_bt_C375280.2 phases=1 kW=0.5 pf=0.98 kv=0.22
New Load.BT330710 Bus1=bus_bt_C330710.3 phases=1 kW=0.5 pf=0.98 kv=0.22
New Load.BT371323 Bus1=bus_bt_C371323.2 phases=1 kW=0.5 pf=0.98 kv=0.22
New Load.BT371326 Bus1=bus_bt_C371326.1 phases=1 kW=0.5 pf=0.98 kv=0.22
New Load.BT371325 Bus1=bus_bt_C371325.2 phases=1 kW=0.5 pf=0.98 kv=0.22
New Load.BT375511 Bus1=bus_bt_C375511.2 phases=1 kW=0.5 pf=0.98 kv=0.22
New Load.BT375564 Bus1=bus_bt_C375564.3 phases=1 kW=0.5 pf=0.98 kv=0.22
New Load.BT375371 Bus1=bus_bt_C375371.2 phases=1 kW=0.5 pf=0.98 kv=0.22
New Load.BT46714 Bus1=bus_bt_C46714.2 phases=1 kW=0.5 pf=0.98 kv=0.22
New Load.BT46703 Bus1=bus_bt_C46703.2 phases=1 kW=0.5 pf=0.98 kv=0.22
New Load.BT46821 Bus1=bus_bt_C46821.1 phases=1 kW=0.5 pf=0.98 kv=0.22
New Load.BT387171 Bus1=bus_bt_C387171.3 phases=1 kW=0.5 pf=0.98 kv=0.22
New Load.BT384518 Bus1=bus_bt_C384518.2 phases=1 kW=0.5 pf=0.98 kv=0.22
New Load.BT324714 Bus1=bus_bt_C324714.2 phases=1 kW=0.5 pf=0.98 kv=0.22
New Load.BT46653 Bus1=bus_bt_C46653.2 phases=1 kW=0.5 pf=0.98 kv=0.22
New Load.BT41867 Bus1=bus_bt_C41867.2 phases=1 kW=0.5 pf=0.98 kv=0.22
New Load.BT253755 Bus1=bus_bt_C253755.1 phases=1 kW=0.5 pf=0.98 kv=0.22
New Load.BT332808 Bus1=bus_bt_C332808.1 phases=1 kW=0.5 pf=0.98 kv=0.22
New Load.BT367191 Bus1=bus_bt_C367191.2 phases=1 kW=0.5 pf=0.98 kv=0.22
New Load.BT45443 Bus1=bus_bt_C45443.3 phases=1 kW=0.5 pf=0.98 kv=0.22
New Load.BT45445 Bus1=bus_bt_C45445.3 phases=1 kW=0.5 pf=0.98 kv=0.22
New Load.BT45444 Bus1=bus_bt_C45444.2 phases=1 kW=0.5 pf=0.98 kv=0.22
New Load.BT462140 Bus1=bus_bt_C462140.3 phases=1 kW=0.5 pf=0.98 kv=0.22
New Load.BT273192 Bus1=bus_bt_C273192.3 phases=1 kW=0.5 pf=0.98 kv=0.22
New Load.BT372230 Bus1=bus_bt_C372230.1 phases=1 kW=0.5 pf=0.98 kv=0.22
New Load.BT371374 Bus1=bus_bt_C371374.3 phases=1 kW=0.5 pf=0.98 kv=0.22
New Load.BT371333 Bus1=bus_bt_C371333.3 phases=1 kW=0.5 pf=0.98 kv=0.22
New Load.BT46759 Bus1=bus_bt_C46759.3 phases=1 kW=0.5 pf=0.98 kv=0.22
New Load.BT317986 Bus1=bus_bt_C317986.2 phases=1 kW=0.5 pf=0.98 kv=0.22
New Load.BT477568 Bus1=bus_bt_C477568.1 phases=1 kW=0.5 pf=0.98 kv=0.22
New Load.BT492676 Bus1=bus_bt_C492676.2 phases=1 kW=0.5 pf=0.98 kv=0.22
New Load.BT46408 Bus1=bus_bt_C46408.1 phases=1 kW=0.5 pf=0.98 kv=0.22
New Load.BT46411 Bus1=bus_bt_C46411.1 phases=1 kW=0.5 pf=0.98 kv=0.22
New Load.BT54698 Bus1=bus_bt_C54698.2 phases=1 kW=0.5 pf=0.98 kv=0.22
New Load.BT54700 Bus1=bus_bt_C54700.2 phases=1 kW=0.5 pf=0.98 kv=0.22
New Load.BT54699 Bus1=bus_bt_C54699.1 phases=1 kW=0.5 pf=0.98 kv=0.22
New Load.BT404026 Bus1=bus_bt_C404026.2 phases=1 kW=0.5 pf=0.98 kv=0.22
New Load.BT517407 Bus1=bus_bt_C517407.1 phases=1 kW=0.5 pf=0.98 kv=0.22
New Load.BT450977 Bus1=bus_bt_C450977.1 phases=1 kW=0.5 pf=0.98 kv=0.22
New Load.BT450979 Bus1=bus_bt_C450979.1 phases=1 kW=0.5 pf=0.98 kv=0.22
New Load.BT468300 Bus1=bus_bt_C468300.1 phases=1 kW=0.5 pf=0.98 kv=0.22
New Load.BT459738 Bus1=bus_bt_C459738.1 phases=1 kW=0.5 pf=0.98 kv=0.22
New Load.BT290599 Bus1=bus_bt_C290599.2 phases=1 kW=0.5 pf=0.98 kv=0.22
New Load.BT497735 Bus1=bus_bt_C497735.2 phases=1 kW=0.5 pf=0.98 kv=0.22
New Load.BT437172 Bus1=bus_bt_C437172.3 phases=1 kW=0.5 pf=0.98 kv=0.22
New Load.BT477506 Bus1=bus_bt_C477506.2 phases=1 kW=0.5 pf=0.98 kv=0.22
New Load.BT389158 Bus1=bus_bt_C389158.3 phases=1 kW=0.5 pf=0.98 kv=0.22
New Load.BT534138 Bus1=bus_bt_C534138.2 phases=1 kW=0.5 pf=0.98 kv=0.22
New Load.BT538277 Bus1=bus_bt_C538277.3 phases=1 kW=0.5 pf=0.98 kv=0.22
New Load.BT538270 Bus1=bus_bt_C538270.1 phases=1 kW=0.5 pf=0.98 kv=0.22
New Load.BT538182 Bus1=bus_bt_C538182.2 phases=1 kW=0.5 pf=0.98 kv=0.22
New Load.BT542378 Bus1=bus_bt_C542378.1 phases=1 kW=0.5 pf=0.98 kv=0.22
New Load.BT506085 Bus1=bus_bt_C506085.2 phases=1 kW=0.5 pf=0.98 kv=0.22
New Load.BT389080 Bus1=bus_bt_C389080.1 phases=1 kW=0.5 pf=0.98 kv=0.22
New Load.BT468258 Bus1=bus_bt_C468258.3 phases=1 kW=0.5 pf=0.98 kv=0.22
New Load.BT466225 Bus1=bus_bt_C466225.1 phases=1 kW=0.5 pf=0.98 kv=0.22
New Load.BT499306 Bus1=bus_bt_C499306.2 phases=1 kW=0.5 pf=0.98 kv=0.22
New Load.BT499386 Bus1=bus_bt_C499386.3 phases=1 kW=0.5 pf=0.98 kv=0.22
New Load.BT499482 Bus1=bus_bt_C499482.2 phases=1 kW=0.5 pf=0.98 kv=0.22
New Load.BT502449 Bus1=bus_bt_C502449.3 phases=1 kW=0.5 pf=0.98 kv=0.22
New Load.BT459731 Bus1=bus_bt_C459731.1 phases=1 kW=0.5 pf=0.98 kv=0.22
New Load.BT294064 Bus1=bus_bt_C294064.1 phases=1 kW=0.5 pf=0.98 kv=0.22
New Load.BT447665 Bus1=bus_bt_C447665.1 phases=1 kW=0.5 pf=0.98 kv=0.22
New Load.BT440680 Bus1=bus_bt_C440680.2 phases=1 kW=0.5 pf=0.98 kv=0.22
New Load.BT420710 Bus1=bus_bt_C420710.2 phases=1 kW=0.5 pf=0.98 kv=0.22
New Load.BT408617 Bus1=bus_bt_C408617.1 phases=1 kW=0.5 pf=0.98 kv=0.22
New Load.BT24863 Bus1=bus_bt_C24863.2 phases=1 kW=0.5 pf=0.98 kv=0.22
New Load.BT398583 Bus1=bus_bt_C398583.3 phases=1 kW=0.5 pf=0.98 kv=0.22
New Load.BT398585 Bus1=bus_bt_C398585.2 phases=1 kW=0.5 pf=0.98 kv=0.22
New Load.BT47274 Bus1=bus_bt_C47274.1 phases=1 kW=0.5 pf=0.98 kv=0.22
New Load.BT253498 Bus1=bus_bt_C253498.2 phases=1 kW=0.5 pf=0.98 kv=0.22
New Load.BT438093 Bus1=bus_bt_C438093.2 phases=1 kW=0.5 pf=0.98 kv=0.22
New Load.BT22665 Bus1=bus_bt_C22665.3 phases=1 kW=0.5 pf=0.98 kv=0.22
New Load.BT232046 Bus1=bus_bt_C232046.2 phases=1 kW=0.5 pf=0.98 kv=0.22
New Load.BT391786 Bus1=bus_bt_C391786.3 phases=1 kW=0.5 pf=0.98 kv=0.22
New Load.BT417582 Bus1=bus_bt_C417582.1 phases=1 kW=0.5 pf=0.98 kv=0.22
New Load.BT25643 Bus1=bus_bt_C25643.3 phases=1 kW=0.5 pf=0.98 kv=0.22
New Load.BT320173 Bus1=bus_bt_C320173.3 phases=1 kW=0.5 pf=0.98 kv=0.22
New Load.BT24519 Bus1=bus_bt_C24519.2 phases=1 kW=0.5 pf=0.98 kv=0.22
New Load.BT24520 Bus1=bus_bt_C24520.1 phases=1 kW=0.5 pf=0.98 kv=0.22
New Load.BT515667 Bus1=bus_bt_C515667.1 phases=1 kW=0.5 pf=0.98 kv=0.22
New Load.BT516600 Bus1=bus_bt_C516600.1 phases=1 kW=0.5 pf=0.98 kv=0.22
New Load.BT517601 Bus1=bus_bt_C517601.2 phases=1 kW=0.5 pf=0.98 kv=0.22
New Load.BT521727 Bus1=bus_bt_C521727.3 phases=1 kW=0.5 pf=0.98 kv=0.22
New Load.BT25015 Bus1=bus_bt_C25015.2 phases=1 kW=0.5 pf=0.98 kv=0.22
New Load.BT24702 Bus1=bus_bt_C24702.2 phases=1 kW=0.5 pf=0.98 kv=0.22
New Load.BT24700 Bus1=bus_bt_C24700.1 phases=1 kW=0.5 pf=0.98 kv=0.22
New Load.BT423867 Bus1=bus_bt_C423867.2 phases=1 kW=0.5 pf=0.98 kv=0.22
New Load.BT343936 Bus1=bus_bt_C343936.3 phases=1 kW=0.5 pf=0.98 kv=0.22
New Load.BT335679 Bus1=bus_bt_C335679.3 phases=1 kW=0.5 pf=0.98 kv=0.22
New Load.BT25036 Bus1=bus_bt_C25036.2 phases=1 kW=0.5 pf=0.98 kv=0.22
New Load.BT25029 Bus1=bus_bt_C25029.2 phases=1 kW=0.5 pf=0.98 kv=0.22
New Load.BT279327 Bus1=bus_bt_C279327.1 phases=1 kW=0.5 pf=0.98 kv=0.22
New Load.BT47021 Bus1=bus_bt_C47021.2 phases=1 kW=0.5 pf=0.98 kv=0.22
New Load.BT389696 Bus1=bus_bt_C389696.1 phases=1 kW=0.5 pf=0.98 kv=0.22
New Load.BT229413 Bus1=bus_bt_C229413.1 phases=1 kW=0.5 pf=0.98 kv=0.22
New Load.BT24609 Bus1=bus_bt_C24609.1 phases=1 kW=0.5 pf=0.98 kv=0.22
New Load.BT24610 Bus1=bus_bt_C24610.1 phases=1 kW=0.5 pf=0.98 kv=0.22
New Load.BT278982 Bus1=bus_bt_C278982.2 phases=1 kW=0.5 pf=0.98 kv=0.22
New Load.BT22754 Bus1=bus_bt_C22754.2 phases=1 kW=0.5 pf=0.98 kv=0.22
New Load.BT25435 Bus1=bus_bt_C25435.1 phases=1 kW=0.5 pf=0.98 kv=0.22
New Load.BT468222 Bus1=bus_bt_C468222.1 phases=1 kW=0.5 pf=0.98 kv=0.22
New Load.BT466260 Bus1=bus_bt_C466260.2 phases=1 kW=0.5 pf=0.98 kv=0.22
New Load.BT466261 Bus1=bus_bt_C466261.2 phases=1 kW=0.5 pf=0.98 kv=0.22
New Load.BT461350 Bus1=bus_bt_C461350.2 phases=1 kW=0.5 pf=0.98 kv=0.22
New Load.BT468319 Bus1=bus_bt_C468319.3 phases=1 kW=0.5 pf=0.98 kv=0.22
New Load.BT47067 Bus1=bus_bt_C47067.3 phases=1 kW=0.5 pf=0.98 kv=0.22
New Load.BT47069 Bus1=bus_bt_C47069.2 phases=1 kW=0.5 pf=0.98 kv=0.22
New Load.BT47071 Bus1=bus_bt_C47071.2 phases=1 kW=0.5 pf=0.98 kv=0.22
New Load.BT462020 Bus1=bus_bt_C462020.3 phases=1 kW=0.5 pf=0.98 kv=0.22
New Load.BT402681 Bus1=bus_bt_C402681.3 phases=1 kW=0.5 pf=0.98 kv=0.22
New Load.BT46156 Bus1=bus_bt_C46156.2 phases=1 kW=0.5 pf=0.98 kv=0.22
New Load.BT275005 Bus1=bus_bt_C275005.3 phases=1 kW=0.5 pf=0.98 kv=0.22
New Load.BT46176 Bus1=bus_bt_C46176.2 phases=1 kW=0.5 pf=0.98 kv=0.22
New Load.BT46162 Bus1=bus_bt_C46162.2 phases=1 kW=0.5 pf=0.98 kv=0.22
New Load.BT459155 Bus1=bus_bt_C459155.3 phases=1 kW=0.5 pf=0.98 kv=0.22
New Load.BT459149 Bus1=bus_bt_C459149.2 phases=1 kW=0.5 pf=0.98 kv=0.22
New Load.BT46103 Bus1=bus_bt_C46103.2 phases=1 kW=0.5 pf=0.98 kv=0.22
New Load.BT375272 Bus1=bus_bt_C375272.1 phases=1 kW=0.5 pf=0.98 kv=0.22
New Load.BT375265 Bus1=bus_bt_C375265.1 phases=1 kW=0.5 pf=0.98 kv=0.22
New Load.BT430366 Bus1=bus_bt_C430366.3 phases=1 kW=0.5 pf=0.98 kv=0.22
New Load.BT416927 Bus1=bus_bt_C416927.3 phases=1 kW=0.5 pf=0.98 kv=0.22
New Load.BT282640 Bus1=bus_bt_C282640.2 phases=1 kW=0.5 pf=0.98 kv=0.22
New Load.BT265107 Bus1=bus_bt_C265107.2 phases=1 kW=0.5 pf=0.98 kv=0.22
New Load.BT303350 Bus1=bus_bt_C303350.1 phases=1 kW=0.5 pf=0.98 kv=0.22
New Load.BT54678 Bus1=bus_bt_C54678.2 phases=1 kW=0.5 pf=0.98 kv=0.22
New Load.BT442932 Bus1=bus_bt_C442932.1 phases=1 kW=0.5 pf=0.98 kv=0.22
New Load.BT413401 Bus1=bus_bt_C413401.2 phases=1 kW=0.5 pf=0.98 kv=0.22
New Load.BT413474 Bus1=bus_bt_C413474.2 phases=1 kW=0.5 pf=0.98 kv=0.22
New Load.BT413473 Bus1=bus_bt_C413473.2 phases=1 kW=0.5 pf=0.98 kv=0.22
New Load.BT413472 Bus1=bus_bt_C413472.1 phases=1 kW=0.5 pf=0.98 kv=0.22
New Load.BT413471 Bus1=bus_bt_C413471.2 phases=1 kW=0.5 pf=0.98 kv=0.22
New Load.BT413381 Bus1=bus_bt_C413381.2 phases=1 kW=0.5 pf=0.98 kv=0.22
New Load.BT413433 Bus1=bus_bt_C413433.3 phases=1 kW=0.5 pf=0.98 kv=0.22
New Load.BT413432 Bus1=bus_bt_C413432.3 phases=1 kW=0.5 pf=0.98 kv=0.22
New Load.BT413431 Bus1=bus_bt_C413431.3 phases=1 kW=0.5 pf=0.98 kv=0.22
New Load.BT527008 Bus1=bus_bt_C527008.3 phases=1 kW=0.5 pf=0.98 kv=0.22
New Load.BT418966 Bus1=bus_bt_C418966.3 phases=1 kW=0.5 pf=0.98 kv=0.22
New Load.BT45227 Bus1=bus_bt_C45227.3 phases=1 kW=0.5 pf=0.98 kv=0.22
New Load.BT45212 Bus1=bus_bt_C45212.2 phases=1 kW=0.5 pf=0.98 kv=0.22
New Load.BT391095 Bus1=bus_bt_C391095.1 phases=1 kW=0.5 pf=0.98 kv=0.22
New Load.BT45788 Bus1=bus_bt_C45788.2 phases=1 kW=0.5 pf=0.98 kv=0.22
New Load.BT54290 Bus1=bus_bt_C54290.1 phases=1 kW=0.5 pf=0.98 kv=0.22
New Load.BT54298 Bus1=bus_bt_C54298.2 phases=1 kW=0.5 pf=0.98 kv=0.22
New Load.BT54292 Bus1=bus_bt_C54292.1 phases=1 kW=0.5 pf=0.98 kv=0.22
New Load.BT46893 Bus1=bus_bt_C46893.2 phases=1 kW=0.5 pf=0.98 kv=0.22
New Load.BT46840 Bus1=bus_bt_C46840.2 phases=1 kW=0.5 pf=0.98 kv=0.22
New Load.BT46841 Bus1=bus_bt_C46841.1 phases=1 kW=0.5 pf=0.98 kv=0.22
New Load.BT46843 Bus1=bus_bt_C46843.2 phases=1 kW=0.5 pf=0.98 kv=0.22
New Load.BT46729 Bus1=bus_bt_C46729.3 phases=1 kW=0.5 pf=0.98 kv=0.22
New Load.BT330675 Bus1=bus_bt_C330675.1 phases=1 kW=0.5 pf=0.98 kv=0.22
New Load.BT330683 Bus1=bus_bt_C330683.2 phases=1 kW=0.5 pf=0.98 kv=0.22
New Load.BT371435 Bus1=bus_bt_C371435.2 phases=1 kW=0.5 pf=0.98 kv=0.22
New Load.BT371427 Bus1=bus_bt_C371427.3 phases=1 kW=0.5 pf=0.98 kv=0.22
New Load.BT371428 Bus1=bus_bt_C371428.3 phases=1 kW=0.5 pf=0.98 kv=0.22
New Load.BT375509 Bus1=bus_bt_C375509.2 phases=1 kW=0.5 pf=0.98 kv=0.22
New Load.BT375412 Bus1=bus_bt_C375412.3 phases=1 kW=0.5 pf=0.98 kv=0.22
New Load.BT333040 Bus1=bus_bt_C333040.1 phases=1 kW=0.5 pf=0.98 kv=0.22
New Load.BT45255 Bus1=bus_bt_C45255.2 phases=1 kW=0.5 pf=0.98 kv=0.22
New Load.BT45283 Bus1=bus_bt_C45283.2 phases=1 kW=0.5 pf=0.98 kv=0.22
New Load.BT45257 Bus1=bus_bt_C45257.3 phases=1 kW=0.5 pf=0.98 kv=0.22
New Load.BT45164 Bus1=bus_bt_C45164.1 phases=1 kW=0.5 pf=0.98 kv=0.22
New Load.BT46730 Bus1=bus_bt_C46730.2 phases=1 kW=0.5 pf=0.98 kv=0.22
New Load.BT46734 Bus1=bus_bt_C46734.3 phases=1 kW=0.5 pf=0.98 kv=0.22
New Load.BT46735 Bus1=bus_bt_C46735.2 phases=1 kW=0.5 pf=0.98 kv=0.22
New Load.BT46773 Bus1=bus_bt_C46773.3 phases=1 kW=0.5 pf=0.98 kv=0.22
New Load.BT46427 Bus1=bus_bt_C46427.3 phases=1 kW=0.5 pf=0.98 kv=0.22
New Load.BT46500 Bus1=bus_bt_C46500.1 phases=1 kW=0.5 pf=0.98 kv=0.22
New Load.BT331292 Bus1=bus_bt_C331292.1 phases=1 kW=0.5 pf=0.98 kv=0.22
New Load.BT403728 Bus1=bus_bt_C403728.2 phases=1 kW=0.5 pf=0.98 kv=0.22
New Load.BT517817 Bus1=bus_bt_C517817.3 phases=1 kW=0.5 pf=0.98 kv=0.22
New Load.BT527987 Bus1=bus_bt_C527987.3 phases=1 kW=0.5 pf=0.98 kv=0.22
New Load.BT294180 Bus1=bus_bt_C294180.3 phases=1 kW=0.5 pf=0.98 kv=0.22
New Load.BT24673 Bus1=bus_bt_C24673.1 phases=1 kW=0.5 pf=0.98 kv=0.22
New Load.BT24674 Bus1=bus_bt_C24674.3 phases=1 kW=0.5 pf=0.98 kv=0.22
New Load.BT47216 Bus1=bus_bt_C47216.1 phases=1 kW=0.5 pf=0.98 kv=0.22
New Load.BT490824 Bus1=bus_bt_C490824.1 phases=1 kW=0.5 pf=0.98 kv=0.22
New Load.BT294034 Bus1=bus_bt_C294034.1 phases=1 kW=0.5 pf=0.98 kv=0.22
New Load.BT300953 Bus1=bus_bt_C300953.1 phases=1 kW=0.5 pf=0.98 kv=0.22
New Load.BT47319 Bus1=bus_bt_C47319.2 phases=1 kW=0.5 pf=0.98 kv=0.22
New Load.BT22666 Bus1=bus_bt_C22666.2 phases=1 kW=0.5 pf=0.98 kv=0.22
New Load.BT24968 Bus1=bus_bt_C24968.2 phases=1 kW=0.5 pf=0.98 kv=0.22
New Load.BT25075 Bus1=bus_bt_C25075.1 phases=1 kW=0.5 pf=0.98 kv=0.22
New Load.BT450548 Bus1=bus_bt_C450548.3 phases=1 kW=0.5 pf=0.98 kv=0.22
New Load.BT402622 Bus1=bus_bt_C402622.1 phases=1 kW=0.5 pf=0.98 kv=0.22
New Load.BT469322 Bus1=bus_bt_C469322.3 phases=1 kW=0.5 pf=0.98 kv=0.22
New Load.BT24491 Bus1=bus_bt_C24491.1 phases=1 kW=0.5 pf=0.98 kv=0.22
New Load.BT25137 Bus1=bus_bt_C25137.1 phases=1 kW=0.5 pf=0.98 kv=0.22
New Load.BT24892 Bus1=bus_bt_C24892.1 phases=1 kW=0.5 pf=0.98 kv=0.22
New Load.BT232044 Bus1=bus_bt_C232044.3 phases=1 kW=0.5 pf=0.98 kv=0.22
New Load.BT339324 Bus1=bus_bt_C339324.1 phases=1 kW=0.5 pf=0.98 kv=0.22
New Load.BT345265 Bus1=bus_bt_C345265.3 phases=1 kW=0.5 pf=0.98 kv=0.22
New Load.BT251226 Bus1=bus_bt_C251226.2 phases=1 kW=0.5 pf=0.98 kv=0.22
New Load.BT25318 Bus1=bus_bt_C25318.1 phases=1 kW=0.5 pf=0.98 kv=0.22
New Load.BT262173 Bus1=bus_bt_C262173.2 phases=1 kW=0.5 pf=0.98 kv=0.22
New Load.BT47306 Bus1=bus_bt_C47306.2 phases=1 kW=0.5 pf=0.98 kv=0.22
New Load.BT371814 Bus1=bus_bt_C371814.1 phases=1 kW=0.5 pf=0.98 kv=0.22
New Load.BT261435 Bus1=bus_bt_C261435.2 phases=1 kW=0.5 pf=0.98 kv=0.22
New Load.BT22770 Bus1=bus_bt_C22770.1 phases=1 kW=0.5 pf=0.98 kv=0.22
New Load.BT466267 Bus1=bus_bt_C466267.2 phases=1 kW=0.5 pf=0.98 kv=0.22
New Load.BT466208 Bus1=bus_bt_C466208.1 phases=1 kW=0.5 pf=0.98 kv=0.22
New Load.BT466231 Bus1=bus_bt_C466231.1 phases=1 kW=0.5 pf=0.98 kv=0.22
New Load.BT468317 Bus1=bus_bt_C468317.1 phases=1 kW=0.5 pf=0.98 kv=0.22
New Load.BT468318 Bus1=bus_bt_C468318.1 phases=1 kW=0.5 pf=0.98 kv=0.22
New Load.BT468270 Bus1=bus_bt_C468270.3 phases=1 kW=0.5 pf=0.98 kv=0.22
New Load.BT466629 Bus1=bus_bt_C466629.2 phases=1 kW=0.5 pf=0.98 kv=0.22
New Load.BT488497 Bus1=bus_bt_C488497.1 phases=1 kW=0.5 pf=0.98 kv=0.22
New Load.BT488488 Bus1=bus_bt_C488488.1 phases=1 kW=0.5 pf=0.98 kv=0.22
New Load.BT46309 Bus1=bus_bt_C46309.3 phases=1 kW=0.5 pf=0.98 kv=0.22
New Load.BT441701 Bus1=bus_bt_C441701.2 phases=1 kW=0.5 pf=0.98 kv=0.22
New Load.BT375219 Bus1=bus_bt_C375219.3 phases=1 kW=0.5 pf=0.98 kv=0.22
New Load.BT375268 Bus1=bus_bt_C375268.2 phases=1 kW=0.5 pf=0.98 kv=0.22
New Load.BT45991 Bus1=bus_bt_C45991.2 phases=1 kW=0.5 pf=0.98 kv=0.22
New Load.BT391285 Bus1=bus_bt_C391285.3 phases=1 kW=0.5 pf=0.98 kv=0.22
New Load.BT54557 Bus1=bus_bt_C54557.1 phases=1 kW=0.5 pf=0.98 kv=0.22
New Load.BT389078 Bus1=bus_bt_C389078.2 phases=1 kW=0.5 pf=0.98 kv=0.22
New Load.BT478444 Bus1=bus_bt_C478444.2 phases=1 kW=0.5 pf=0.98 kv=0.22
New Load.BT410889 Bus1=bus_bt_C410889.2 phases=1 kW=0.5 pf=0.98 kv=0.22
New Load.BT450912 Bus1=bus_bt_C450912.3 phases=1 kW=0.5 pf=0.98 kv=0.22
New Load.BT413416 Bus1=bus_bt_C413416.2 phases=1 kW=0.5 pf=0.98 kv=0.22
New Load.BT413420 Bus1=bus_bt_C413420.3 phases=1 kW=0.5 pf=0.98 kv=0.22
New Load.BT413403 Bus1=bus_bt_C413403.2 phases=1 kW=0.5 pf=0.98 kv=0.22
New Load.BT364630 Bus1=bus_bt_C364630.1 phases=1 kW=0.5 pf=0.98 kv=0.22
New Load.BT46059 Bus1=bus_bt_C46059.3 phases=1 kW=0.5 pf=0.98 kv=0.22
New Load.BT46063 Bus1=bus_bt_C46063.3 phases=1 kW=0.5 pf=0.98 kv=0.22
New Load.BT486561 Bus1=bus_bt_C486561.3 phases=1 kW=0.5 pf=0.98 kv=0.22
New Load.BT444178 Bus1=bus_bt_C444178.1 phases=1 kW=0.5 pf=0.98 kv=0.22
New Load.BT484082 Bus1=bus_bt_C484082.3 phases=1 kW=0.5 pf=0.98 kv=0.22
New Load.BT490775 Bus1=bus_bt_C490775.3 phases=1 kW=0.5 pf=0.98 kv=0.22
New Load.BT480338 Bus1=bus_bt_C480338.3 phases=1 kW=0.5 pf=0.98 kv=0.22
New Load.BT494593 Bus1=bus_bt_C494593.2 phases=1 kW=0.5 pf=0.98 kv=0.22
New Load.BT506884 Bus1=bus_bt_C506884.3 phases=1 kW=0.5 pf=0.98 kv=0.22
New Load.BT432765 Bus1=bus_bt_C432765.2 phases=1 kW=0.5 pf=0.98 kv=0.22
New Load.BT54657 Bus1=bus_bt_C54657.3 phases=1 kW=0.5 pf=0.98 kv=0.22
New Load.BT468293 Bus1=bus_bt_C468293.2 phases=1 kW=0.5 pf=0.98 kv=0.22
New Load.BT476120 Bus1=bus_bt_C476120.1 phases=1 kW=0.5 pf=0.98 kv=0.22
New Load.BT45868 Bus1=bus_bt_C45868.3 phases=1 kW=0.5 pf=0.98 kv=0.22
New Load.BT466199 Bus1=bus_bt_C466199.3 phases=1 kW=0.5 pf=0.98 kv=0.22
New Load.BT476906 Bus1=bus_bt_C476906.2 phases=1 kW=0.5 pf=0.98 kv=0.22
New Load.BT482979 Bus1=bus_bt_C482979.2 phases=1 kW=0.5 pf=0.98 kv=0.22
New Load.BT476911 Bus1=bus_bt_C476911.1 phases=1 kW=0.5 pf=0.98 kv=0.22
New Load.BT499349 Bus1=bus_bt_C499349.3 phases=1 kW=0.5 pf=0.98 kv=0.22
New Load.BT499408 Bus1=bus_bt_C499408.1 phases=1 kW=0.5 pf=0.98 kv=0.22
New Load.BT499409 Bus1=bus_bt_C499409.2 phases=1 kW=0.5 pf=0.98 kv=0.22
New Load.BT413415 Bus1=bus_bt_C413415.3 phases=1 kW=0.5 pf=0.98 kv=0.22
New Load.BT508646 Bus1=bus_bt_C508646.2 phases=1 kW=0.5 pf=0.98 kv=0.22
New Load.BT510544 Bus1=bus_bt_C510544.3 phases=1 kW=0.5 pf=0.98 kv=0.22
New Load.BT512828 Bus1=bus_bt_C512828.3 phases=1 kW=0.5 pf=0.98 kv=0.22
New Load.BT513127 Bus1=bus_bt_C513127.3 phases=1 kW=0.5 pf=0.98 kv=0.22
New Load.BT514625 Bus1=bus_bt_C514625.3 phases=1 kW=0.5 pf=0.98 kv=0.22
New Load.BT515526 Bus1=bus_bt_C515526.3 phases=1 kW=0.5 pf=0.98 kv=0.22
New Load.BT372198 Bus1=bus_bt_C372198.3 phases=1 kW=0.5 pf=0.98 kv=0.22
New Load.BT464617 Bus1=bus_bt_C464617.1 phases=1 kW=0.5 pf=0.98 kv=0.22
New Load.BT534113 Bus1=bus_bt_C534113.3 phases=1 kW=0.5 pf=0.98 kv=0.22
New Load.BT534919 Bus1=bus_bt_C534919.2 phases=1 kW=0.5 pf=0.98 kv=0.22
New Load.BT538294 Bus1=bus_bt_C538294.3 phases=1 kW=0.5 pf=0.98 kv=0.22
New Load.BT538469 Bus1=bus_bt_C538469.1 phases=1 kW=0.5 pf=0.98 kv=0.22
New Load.BT538206 Bus1=bus_bt_C538206.2 phases=1 kW=0.5 pf=0.98 kv=0.22
New Load.BT541013 Bus1=bus_bt_C541013.2 phases=1 kW=0.5 pf=0.98 kv=0.22
New Load.BT520485 Bus1=bus_bt_C520485.3 phases=1 kW=0.5 pf=0.98 kv=0.22
New Load.BT524771 Bus1=bus_bt_C524771.3 phases=1 kW=0.5 pf=0.98 kv=0.22
New Load.BT526512 Bus1=bus_bt_C526512.3 phases=1 kW=0.5 pf=0.98 kv=0.22
New Load.BT528186 Bus1=bus_bt_C528186.1 phases=1 kW=0.5 pf=0.98 kv=0.22
New Load.BT533685 Bus1=bus_bt_C533685.2 phases=1 kW=0.5 pf=0.98 kv=0.22
New Load.BT45447 Bus1=bus_bt_C45447.1 phases=1 kW=0.5 pf=0.98 kv=0.22
New Load.BT45241 Bus1=bus_bt_C45241.3 phases=1 kW=0.5 pf=0.98 kv=0.22
New Load.BT45763 Bus1=bus_bt_C45763.1 phases=1 kW=0.5 pf=0.98 kv=0.22
New Load.BT538235 Bus1=bus_bt_C538235.1 phases=1 kW=0.5 pf=0.98 kv=0.22
New Load.BT538173 Bus1=bus_bt_C538173.2 phases=1 kW=0.5 pf=0.98 kv=0.22
New Load.BT542376 Bus1=bus_bt_C542376.2 phases=1 kW=0.5 pf=0.98 kv=0.22
New Load.BT375208 Bus1=bus_bt_C375208.3 phases=1 kW=0.5 pf=0.98 kv=0.22
New Load.BT375210 Bus1=bus_bt_C375210.1 phases=1 kW=0.5 pf=0.98 kv=0.22
New Load.BT46922 Bus1=bus_bt_C46922.3 phases=1 kW=0.5 pf=0.98 kv=0.22
New Load.BT46862 Bus1=bus_bt_C46862.3 phases=1 kW=0.5 pf=0.98 kv=0.22
New Load.BT46859 Bus1=bus_bt_C46859.2 phases=1 kW=0.5 pf=0.98 kv=0.22
New Load.BT45041 Bus1=bus_bt_C45041.1 phases=1 kW=0.5 pf=0.98 kv=0.22
New Load.BT46939 Bus1=bus_bt_C46939.3 phases=1 kW=0.5 pf=0.98 kv=0.22
New Load.BT331272 Bus1=bus_bt_C331272.1 phases=1 kW=0.5 pf=0.98 kv=0.22
New Load.BT330259 Bus1=bus_bt_C330259.3 phases=1 kW=0.5 pf=0.98 kv=0.22
New Load.BT330264 Bus1=bus_bt_C330264.1 phases=1 kW=0.5 pf=0.98 kv=0.22
New Load.BT371329 Bus1=bus_bt_C371329.3 phases=1 kW=0.5 pf=0.98 kv=0.22
New Load.BT375549 Bus1=bus_bt_C375549.3 phases=1 kW=0.5 pf=0.98 kv=0.22
New Load.BT375536 Bus1=bus_bt_C375536.3 phases=1 kW=0.5 pf=0.98 kv=0.22
New Load.BT320692 Bus1=bus_bt_C320692.1 phases=1 kW=0.5 pf=0.98 kv=0.22
New Load.BT375479 Bus1=bus_bt_C375479.2 phases=1 kW=0.5 pf=0.98 kv=0.22
New Load.BT330665 Bus1=bus_bt_C330665.1 phases=1 kW=0.5 pf=0.98 kv=0.22
New Load.BT333044 Bus1=bus_bt_C333044.2 phases=1 kW=0.5 pf=0.98 kv=0.22
New Load.BT46532 Bus1=bus_bt_C46532.3 phases=1 kW=0.5 pf=0.98 kv=0.22
New Load.BT46655 Bus1=bus_bt_C46655.2 phases=1 kW=0.5 pf=0.98 kv=0.22
New Load.BT46663 Bus1=bus_bt_C46663.3 phases=1 kW=0.5 pf=0.98 kv=0.22
New Load.BT46657 Bus1=bus_bt_C46657.3 phases=1 kW=0.5 pf=0.98 kv=0.22
New Load.BT253889 Bus1=bus_bt_C253889.1 phases=1 kW=0.5 pf=0.98 kv=0.22
New Load.BT45143 Bus1=bus_bt_C45143.3 phases=1 kW=0.5 pf=0.98 kv=0.22
New Load.BT253892 Bus1=bus_bt_C253892.3 phases=1 kW=0.5 pf=0.98 kv=0.22
New Load.BT45144 Bus1=bus_bt_C45144.2 phases=1 kW=0.5 pf=0.98 kv=0.22
New Load.BT371368 Bus1=bus_bt_C371368.2 phases=1 kW=0.5 pf=0.98 kv=0.22
New Load.BT371402 Bus1=bus_bt_C371402.1 phases=1 kW=0.5 pf=0.98 kv=0.22
New Load.BT371405 Bus1=bus_bt_C371405.3 phases=1 kW=0.5 pf=0.98 kv=0.22
New Load.BT433554 Bus1=bus_bt_C433554.2 phases=1 kW=0.5 pf=0.98 kv=0.22
New Load.BT46738 Bus1=bus_bt_C46738.2 phases=1 kW=0.5 pf=0.98 kv=0.22
New Load.BT46743 Bus1=bus_bt_C46743.3 phases=1 kW=0.5 pf=0.98 kv=0.22