New Transformer.1685973 buses=[sourcebus bus_mt8536584] conns=[delta wye] wdg=1 kvs=[66.0 23.0] kvas=[30000.0 30000.0] xhl=4 %loadloss=1.5 tap=1.025 numtaps=5 maxtap=1.050 mintap=0.95
New Transformer.4501014088 buses=[bus_mt8663658 bus_bt8663630] conns=[delta wye] wdg=1 kvs=[23 0.4] kvas=[25.0 25.0] xhl=4 %loadloss=1.5 tap=1.025 numtaps=5 maxtap=1.050 mintap=0.95
New Transformer.4500658993 buses=[bus_mt113279584 bus_bt113279585] conns=[delta wye] wdg=1 kvs=[23 0.4] kvas=[15.0 15.0] xhl=4 %loadloss=1.5 tap=1.025 numtaps=5 maxtap=1.050 mintap=0.95
New Transformer.4500063927 buses=[bus_mt48996421 bus_bt48996422] conns=[delta wye] wdg=1 kvs=[23 0.4] kvas=[15.0 15.0] xhl=4 %loadloss=1.5 tap=1.025 numtaps=5 maxtap=1.050 mintap=0.95
New Transformer.4500064122 buses=[bus_mt69861583 bus_bt69861584] conns=[delta wye] wdg=1 kvs=[23 0.4] kvas=[15.0 15.0] xhl=4 %loadloss=1.5 tap=1.025 numtaps=5 maxtap=1.050 mintap=0.95
New Transformer.4500064157 buses=[bus_mt52606070 bus_bt52606071] conns=[delta wye] wdg=1 kvs=[23 0.4] kvas=[15.0 15.0] xhl=4 %loadloss=1.5 tap=1.025 numtaps=5 maxtap=1.050 mintap=0.95
New Transformer.4500119245 buses=[bus_mt5326673 bus_bt4370299] conns=[delta wye] wdg=1 kvs=[23 0.4] kvas=[15.0 15.0] xhl=4 %loadloss=1.5 tap=1.025 numtaps=5 maxtap=1.050 mintap=0.95
New Transformer.4500121176 buses=[bus_mt72194740 bus_bt72194746] conns=[delta wye] wdg=1 kvs=[23 0.4] kvas=[15.0 15.0] xhl=4 %loadloss=1.5 tap=1.025 numtaps=5 maxtap=1.050 mintap=0.95
New Transformer.4500121647 buses=[bus_mt72194548 bus_bt36069945] conns=[delta wye] wdg=1 kvs=[23 0.4] kvas=[15.0 15.0] xhl=4 %loadloss=1.5 tap=1.025 numtaps=5 maxtap=1.050 mintap=0.95
New Transformer.4500121705 buses=[bus_mt5614948 bus_bt71137003] conns=[delta wye] wdg=1 kvs=[23 0.4] kvas=[15.0 15.0] xhl=4 %loadloss=1.5 tap=1.025 numtaps=5 maxtap=1.050 mintap=0.95
New Transformer.4500130358 buses=[bus_mt72644003 bus_bt72645022] conns=[delta wye] wdg=1 kvs=[23 0.4] kvas=[15.0 15.0] xhl=4 %loadloss=1.5 tap=1.025 numtaps=5 maxtap=1.050 mintap=0.95
New Transformer.4500134164 buses=[bus_mt74113460 bus_bt74115222] conns=[delta wye] wdg=1 kvs=[23 0.4] kvas=[15.0 15.0] xhl=4 %loadloss=1.5 tap=1.025 numtaps=5 maxtap=1.050 mintap=0.95
New Transformer.4500165041 buses=[bus_mt76513162 bus_bt76513163] conns=[delta wye] wdg=1 kvs=[23 0.4] kvas=[15.0 15.0] xhl=4 %loadloss=1.5 tap=1.025 numtaps=5 maxtap=1.050 mintap=0.95
New Transformer.4500165066 buses=[bus_mt76515018 bus_bt76515019] conns=[delta wye] wdg=1 kvs=[23 0.4] kvas=[15.0 15.0] xhl=4 %loadloss=1.5 tap=1.025 numtaps=5 maxtap=1.050 mintap=0.95
New Transformer.4500165122 buses=[bus_mt76513561 bus_bt76513562] conns=[delta wye] wdg=1 kvs=[23 0.4] kvas=[15.0 15.0] xhl=4 %loadloss=1.5 tap=1.025 numtaps=5 maxtap=1.050 mintap=0.95
New Transformer.4500165163 buses=[bus_mt76513360 bus_bt76513361] conns=[delta wye] wdg=1 kvs=[23 0.4] kvas=[15.0 15.0] xhl=4 %loadloss=1.5 tap=1.025 numtaps=5 maxtap=1.050 mintap=0.95
New Transformer.4500170102 buses=[bus_mt77164059 bus_bt77164060] conns=[delta wye] wdg=1 kvs=[23 0.4] kvas=[15.0 15.0] xhl=4 %loadloss=1.5 tap=1.025 numtaps=5 maxtap=1.050 mintap=0.95
New Transformer.4500171504 buses=[bus_mt77337071 bus_bt77337577] conns=[delta wye] wdg=1 kvs=[23 0.4] kvas=[15.0 15.0] xhl=4 %loadloss=1.5 tap=1.025 numtaps=5 maxtap=1.050 mintap=0.95
New Transformer.4500195202 buses=[bus_mt3655820 bus_bt79482414] conns=[delta wye] wdg=1 kvs=[23 0.4] kvas=[10.0 10.0] xhl=4 %loadloss=1.5 tap=1.025 numtaps=5 maxtap=1.050 mintap=0.95
New Transformer.4500202316 buses=[bus_mt80082233 bus_bt80082896] conns=[delta wye] wdg=1 kvs=[23 0.4] kvas=[15.0 15.0] xhl=4 %loadloss=1.5 tap=1.025 numtaps=5 maxtap=1.050 mintap=0.95
New Transformer.4500240094 buses=[bus_mt83206074 bus_bt83206076] conns=[delta wye] wdg=1 kvs=[23 0.4] kvas=[15.0 15.0] xhl=4 %loadloss=1.5 tap=1.025 numtaps=5 maxtap=1.050 mintap=0.95
New Transformer.4500250098 buses=[bus_mt84004554 bus_bt84004558] conns=[delta wye] wdg=1 kvs=[23 0.4] kvas=[15.0 15.0] xhl=4 %loadloss=1.5 tap=1.025 numtaps=5 maxtap=1.050 mintap=0.95
New Transformer.4500250145 buses=[bus_mt84006003 bus_bt84006004] conns=[delta wye] wdg=1 kvs=[23 0.4] kvas=[15.0 15.0] xhl=4 %loadloss=1.5 tap=1.025 numtaps=5 maxtap=1.050 mintap=0.95
New Transformer.4500250238 buses=[bus_mt84004898 bus_bt84004904] conns=[delta wye] wdg=1 kvs=[23 0.4] kvas=[15.0 15.0] xhl=4 %loadloss=1.5 tap=1.025 numtaps=5 maxtap=1.050 mintap=0.95
New Transformer.4500263799 buses=[bus_mt85351589 bus_bt85351590] conns=[delta wye] wdg=1 kvs=[23 0.4] kvas=[15.0 15.0] xhl=4 %loadloss=1.5 tap=1.025 numtaps=5 maxtap=1.050 mintap=0.95
New Transformer.4500296614 buses=[bus_mt45194115 bus_bt45194114] conns=[delta wye] wdg=1 kvs=[23 0.4] kvas=[15.0 15.0] xhl=4 %loadloss=1.5 tap=1.025 numtaps=5 maxtap=1.050 mintap=0.95
New Transformer.4500300366 buses=[bus_mt89105065 bus_bt89105623] conns=[delta wye] wdg=1 kvs=[23 0.4] kvas=[15.0 15.0] xhl=4 %loadloss=1.5 tap=1.025 numtaps=5 maxtap=1.050 mintap=0.95
New Transformer.4500327421 buses=[bus_mt9038771 bus_bt91443455] conns=[delta wye] wdg=1 kvs=[23 0.4] kvas=[10.0 10.0] xhl=4 %loadloss=1.5 tap=1.025 numtaps=5 maxtap=1.050 mintap=0.95
New Transformer.4500340472 buses=[bus_mt92336626 bus_bt92337677] conns=[delta wye] wdg=1 kvs=[23 0.4] kvas=[15.0 15.0] xhl=4 %loadloss=1.5 tap=1.025 numtaps=5 maxtap=1.050 mintap=0.95
New Transformer.4500340502 buses=[bus_mt92336607 bus_bt92336608] conns=[delta wye] wdg=1 kvs=[23 0.4] kvas=[15.0 15.0] xhl=4 %loadloss=1.5 tap=1.025 numtaps=5 maxtap=1.050 mintap=0.95
New Transformer.4500353537 buses=[bus_mt93389170 bus_bt93389171] conns=[delta wye] wdg=1 kvs=[23 0.4] kvas=[15.0 15.0] xhl=4 %loadloss=1.5 tap=1.025 numtaps=5 maxtap=1.050 mintap=0.95
New Transformer.4500362397 buses=[bus_mt5722398 bus_bt94091289] conns=[delta wye] wdg=1 kvs=[23 0.4] kvas=[15.0 15.0] xhl=4 %loadloss=1.5 tap=1.025 numtaps=5 maxtap=1.050 mintap=0.95
New Transformer.4500374282 buses=[bus_mt94804759 bus_bt94853931] conns=[delta wye] wdg=1 kvs=[23 0.4] kvas=[15.0 15.0] xhl=4 %loadloss=1.5 tap=1.025 numtaps=5 maxtap=1.050 mintap=0.95
New Transformer.4500374486 buses=[bus_mt94817361 bus_bt94817365] conns=[delta wye] wdg=1 kvs=[23 0.4] kvas=[15.0 15.0] xhl=4 %loadloss=1.5 tap=1.025 numtaps=5 maxtap=1.050 mintap=0.95
New Transformer.4500374570 buses=[bus_mt94804753 bus_bt94804754] conns=[delta wye] wdg=1 kvs=[23 0.4] kvas=[15.0 15.0] xhl=4 %loadloss=1.5 tap=1.025 numtaps=5 maxtap=1.050 mintap=0.95
New Transformer.4500384553 buses=[bus_mt14555150 bus_bt14555151] conns=[delta wye] wdg=1 kvs=[23 0.4] kvas=[15.0 15.0] xhl=4 %loadloss=1.5 tap=1.025 numtaps=5 maxtap=1.050 mintap=0.95
New Transformer.4500458212 buses=[bus_mt38614569 bus_bt38614570] conns=[delta wye] wdg=1 kvs=[23 0.4] kvas=[15.0 15.0] xhl=4 %loadloss=1.5 tap=1.025 numtaps=5 maxtap=1.050 mintap=0.95
New Transformer.4500461055 buses=[bus_mt4687690 bus_bt77683708] conns=[delta wye] wdg=1 kvs=[23 0.4] kvas=[5.0 5.0] xhl=4 %loadloss=1.5 tap=1.025 numtaps=5 maxtap=1.050 mintap=0.95
New Transformer.4500463104 buses=[bus_mt25564407 bus_bt12717022] conns=[delta wye] wdg=1 kvs=[23 0.4] kvas=[15.0 15.0] xhl=4 %loadloss=1.5 tap=1.025 numtaps=5 maxtap=1.050 mintap=0.95
New Transformer.4500467544 buses=[bus_mt80107275 bus_bt80108969] conns=[delta wye] wdg=1 kvs=[23 0.4] kvas=[15.0 15.0] xhl=4 %loadloss=1.5 tap=1.025 numtaps=5 maxtap=1.050 mintap=0.95
New Transformer.4500485580 buses=[bus_mt41671010 bus_bt102350497] conns=[delta wye] wdg=1 kvs=[23 0.4] kvas=[15.0 15.0] xhl=4 %loadloss=1.5 tap=1.025 numtaps=5 maxtap=1.050 mintap=0.95
New Transformer.4500497617 buses=[bus_mt15026834 bus_bt15026829] conns=[delta wye] wdg=1 kvs=[23 0.4] kvas=[15.0 15.0] xhl=4 %loadloss=1.5 tap=1.025 numtaps=5 maxtap=1.050 mintap=0.95
New Transformer.4500502856 buses=[bus_mt5691645 bus_bt3855788] conns=[delta wye] wdg=1 kvs=[23 0.4] kvas=[15.0 15.0] xhl=4 %loadloss=1.5 tap=1.025 numtaps=5 maxtap=1.050 mintap=0.95
New Transformer.4500502859 buses=[bus_mt4976200 bus_bt3850865] conns=[delta wye] wdg=1 kvs=[23 0.4] kvas=[15.0 15.0] xhl=4 %loadloss=1.5 tap=1.025 numtaps=5 maxtap=1.050 mintap=0.95
New Transformer.4500505924 buses=[bus_mt5656378 bus_bt103133911] conns=[delta wye] wdg=1 kvs=[23 0.4] kvas=[15.0 15.0] xhl=4 %loadloss=1.5 tap=1.025 numtaps=5 maxtap=1.050 mintap=0.95
New Transformer.4500512182 buses=[bus_mt101472096 bus_bt101472098] conns=[delta wye] wdg=1 kvs=[23 0.4] kvas=[15.0 15.0] xhl=4 %loadloss=1.5 tap=1.025 numtaps=5 maxtap=1.050 mintap=0.95
New Transformer.4500514695 buses=[bus_mt26284127 bus_bt30175141] conns=[delta wye] wdg=1 kvs=[23 0.4] kvas=[15.0 15.0] xhl=4 %loadloss=1.5 tap=1.025 numtaps=5 maxtap=1.050 mintap=0.95
New Transformer.4500516256 buses=[bus_mt105169391 bus_bt105169392] conns=[delta wye] wdg=1 kvs=[23 0.4] kvas=[15.0 15.0] xhl=4 %loadloss=1.5 tap=1.025 numtaps=5 maxtap=1.050 mintap=0.95
New Transformer.4500521263 buses=[bus_mt105699263 bus_bt105699264] conns=[delta wye] wdg=1 kvs=[23 0.4] kvas=[15.0 15.0] xhl=4 %loadloss=1.5 tap=1.025 numtaps=5 maxtap=1.050 mintap=0.95
New Transformer.4500521692 buses=[bus_mt105670171 bus_bt105670172] conns=[delta wye] wdg=1 kvs=[23 0.4] kvas=[15.0 15.0] xhl=4 %loadloss=1.5 tap=1.025 numtaps=5 maxtap=1.050 mintap=0.95
New Transformer.4500521693 buses=[bus_mt105670155 bus_bt105670156] conns=[delta wye] wdg=1 kvs=[23 0.4] kvas=[15.0 15.0] xhl=4 %loadloss=1.5 tap=1.025 numtaps=5 maxtap=1.050 mintap=0.95
New Transformer.4500523258 buses=[bus_mt105891424 bus_bt105891595] conns=[delta wye] wdg=1 kvs=[23 0.4] kvas=[15.0 15.0] xhl=4 %loadloss=1.5 tap=1.025 numtaps=5 maxtap=1.050 mintap=0.95
New Transformer.4500541414 buses=[bus_mt5519841 bus_bt3904013] conns=[delta wye] wdg=1 kvs=[23 0.4] kvas=[15.0 15.0] xhl=4 %loadloss=1.5 tap=1.025 numtaps=5 maxtap=1.050 mintap=0.95
New Transformer.4500602905 buses=[bus_mt108251453 bus_bt108251454] conns=[delta wye] wdg=1 kvs=[23 0.4] kvas=[25.0 25.0] xhl=4 %loadloss=1.5 tap=1.025 numtaps=5 maxtap=1.050 mintap=0.95
New Transformer.4500602996 buses=[bus_mt108251137 bus_bt108251138] conns=[delta wye] wdg=1 kvs=[23 0.4] kvas=[15.0 15.0] xhl=4 %loadloss=1.5 tap=1.025 numtaps=5 maxtap=1.050 mintap=0.95
New Transformer.4500633678 buses=[bus_mt112070884 bus_bt112070885] conns=[delta wye] wdg=1 kvs=[23 0.4] kvas=[15.0 15.0] xhl=4 %loadloss=1.5 tap=1.025 numtaps=5 maxtap=1.050 mintap=0.95
New Transformer.4500643142 buses=[bus_mt112516559 bus_bt112516744] conns=[delta wye] wdg=1 kvs=[23 0.4] kvas=[10.0 10.0] xhl=4 %loadloss=1.5 tap=1.025 numtaps=5 maxtap=1.050 mintap=0.95
New Transformer.4500646322 buses=[bus_mt8694837 bus_bt15429271] conns=[delta wye] wdg=1 kvs=[23 0.4] kvas=[10.0 10.0] xhl=4 %loadloss=1.5 tap=1.025 numtaps=5 maxtap=1.050 mintap=0.95
New Transformer.4500646325 buses=[bus_mt10442922 bus_bt10442923] conns=[delta wye] wdg=1 kvs=[23 0.4] kvas=[10.0 10.0] xhl=4 %loadloss=1.5 tap=1.025 numtaps=5 maxtap=1.050 mintap=0.95
New Transformer.4500646326 buses=[bus_mt18242018 bus_bt10443834] conns=[delta wye] wdg=1 kvs=[23 0.4] kvas=[15.0 15.0] xhl=4 %loadloss=1.5 tap=1.025 numtaps=5 maxtap=1.050 mintap=0.95
New Transformer.4500646349 buses=[bus_mt25564381 bus_bt13050166] conns=[delta wye] wdg=1 kvs=[23 0.4] kvas=[15.0 15.0] xhl=4 %loadloss=1.5 tap=1.025 numtaps=5 maxtap=1.050 mintap=0.95
New Transformer.4500650468 buses=[bus_mt5185007 bus_bt3113382] conns=[delta wye] wdg=1 kvs=[23 0.4] kvas=[25.0 25.0] xhl=4 %loadloss=1.5 tap=1.025 numtaps=5 maxtap=1.050 mintap=0.95
New Transformer.4500660206 buses=[bus_mt44658980 bus_bt44658953] conns=[delta wye] wdg=1 kvs=[23 0.4] kvas=[15.0 15.0] xhl=4 %loadloss=1.5 tap=1.025 numtaps=5 maxtap=1.050 mintap=0.95
New Transformer.4500660810 buses=[bus_mt5379931 bus_bt3795400] conns=[delta wye] wdg=1 kvs=[23 0.4] kvas=[15.0 15.0] xhl=4 %loadloss=1.5 tap=1.025 numtaps=5 maxtap=1.050 mintap=0.95
New Transformer.4500665534 buses=[bus_mt108251238 bus_bt108251239] conns=[delta wye] wdg=1 kvs=[23 0.4] kvas=[15.0 15.0] xhl=4 %loadloss=1.5 tap=1.025 numtaps=5 maxtap=1.050 mintap=0.95
New Transformer.4500670729 buses=[bus_mt4474770 bus_bt4052072] conns=[delta wye] wdg=1 kvs=[23 0.4] kvas=[25.0 25.0] xhl=4 %loadloss=1.5 tap=1.025 numtaps=5 maxtap=1.050 mintap=0.95
New Transformer.4500672136 buses=[bus_mt16376014 bus_bt16376040] conns=[delta wye] wdg=1 kvs=[23 0.4] kvas=[15.0 15.0] xhl=4 %loadloss=1.5 tap=1.025 numtaps=5 maxtap=1.050 mintap=0.95
New Transformer.4500678288 buses=[bus_mt3930254 bus_bt47247392] conns=[delta wye] wdg=1 kvs=[23 0.4] kvas=[15.0 15.0] xhl=4 %loadloss=1.5 tap=1.025 numtaps=5 maxtap=1.050 mintap=0.95
New Transformer.4500679160 buses=[bus_mt4998986 bus_bt3752850] conns=[delta wye] wdg=1 kvs=[23 0.4] kvas=[25.0 25.0] xhl=4 %loadloss=1.5 tap=1.025 numtaps=5 maxtap=1.050 mintap=0.95
New Transformer.4500680309 buses=[bus_mt113582012 bus_bt113582013] conns=[delta wye] wdg=1 kvs=[23 0.4] kvas=[15.0 15.0] xhl=4 %loadloss=1.5 tap=1.025 numtaps=5 maxtap=1.050 mintap=0.95
New Transformer.4500702184 buses=[bus_mt8371777 bus_bt114868812] conns=[delta wye] wdg=1 kvs=[23 0.4] kvas=[5.0 5.0] xhl=4 %loadloss=1.5 tap=1.025 numtaps=5 maxtap=1.050 mintap=0.95
New Transformer.4500717388 buses=[bus_mt12817866 bus_bt12817867] conns=[delta wye] wdg=1 kvs=[23 0.4] kvas=[25.0 25.0] xhl=4 %loadloss=1.5 tap=1.025 numtaps=5 maxtap=1.050 mintap=0.95
New Transformer.4500783127 buses=[bus_mt10442958 bus_bt10442959] conns=[delta wye] wdg=1 kvs=[23 0.4] kvas=[15.0 15.0] xhl=4 %loadloss=1.5 tap=1.025 numtaps=5 maxtap=1.050 mintap=0.95
New Transformer.4500795327 buses=[bus_mt5553018 bus_bt3688139] conns=[delta wye] wdg=1 kvs=[23 0.4] kvas=[5.0 5.0] xhl=4 %loadloss=1.5 tap=1.025 numtaps=5 maxtap=1.050 mintap=0.95
New Transformer.4500795345 buses=[bus_mt5185007 bus_bt3110510] conns=[delta wye] wdg=1 kvs=[23 0.4] kvas=[15.0 15.0] xhl=4 %loadloss=1.5 tap=1.025 numtaps=5 maxtap=1.050 mintap=0.95
New Transformer.4500799204 buses=[bus_mt4939633 bus_bt3878247] conns=[delta wye] wdg=1 kvs=[23 0.4] kvas=[15.0 15.0] xhl=4 %loadloss=1.5 tap=1.025 numtaps=5 maxtap=1.050 mintap=0.95
New Transformer.4500846439 buses=[bus_mt4824805 bus_bt4582323] conns=[delta wye] wdg=1 kvs=[23 0.4] kvas=[10.0 10.0] xhl=4 %loadloss=1.5 tap=1.025 numtaps=5 maxtap=1.050 mintap=0.95
New Transformer.1491801 buses=[bus_mt3845680 bus_bt4349130] conns=[delta wye] wdg=1 kvs=[23 0.4] kvas=[5.0 5.0] xhl=4 %loadloss=1.5 tap=1.025 numtaps=5 maxtap=1.050 mintap=0.95
New Transformer.4500860625 buses=[bus_mt3721988 bus_bt3134000] conns=[delta wye] wdg=1 kvs=[23 0.4] kvas=[25.0 25.0] xhl=4 %loadloss=1.5 tap=1.025 numtaps=5 maxtap=1.050 mintap=0.95
New Transformer.4500866486 buses=[bus_mt5666093 bus_bt3046579] conns=[delta wye] wdg=1 kvs=[23 0.4] kvas=[25.0 25.0] xhl=4 %loadloss=1.5 tap=1.025 numtaps=5 maxtap=1.050 mintap=0.95
New Transformer.4500878358 buses=[bus_mt12562619 bus_bt12562620] conns=[delta wye] wdg=1 kvs=[23 0.4] kvas=[15.0 15.0] xhl=4 %loadloss=1.5 tap=1.025 numtaps=5 maxtap=1.050 mintap=0.95
New Transformer.4500889709 buses=[bus_mt8756136 bus_bt8756094] conns=[delta wye] wdg=1 kvs=[23 0.4] kvas=[15.0 15.0] xhl=4 %loadloss=1.5 tap=1.025 numtaps=5 maxtap=1.050 mintap=0.95
New Transformer.4500889711 buses=[bus_mt5652962 bus_bt4282506] conns=[delta wye] wdg=1 kvs=[23 0.4] kvas=[15.0 15.0] xhl=4 %loadloss=1.5 tap=1.025 numtaps=5 maxtap=1.050 mintap=0.95
New Transformer.4500889738 buses=[bus_mt43886352 bus_bt22098584] conns=[delta wye] wdg=1 kvs=[23 0.4] kvas=[5.0 5.0] xhl=4 %loadloss=1.5 tap=1.025 numtaps=5 maxtap=1.050 mintap=0.95
New Transformer.4500889745 buses=[bus_mt11757383 bus_bt114868163] conns=[delta wye] wdg=1 kvs=[23 0.4] kvas=[15.0 15.0] xhl=4 %loadloss=1.5 tap=1.025 numtaps=5 maxtap=1.050 mintap=0.95
New Transformer.4500889748 buses=[bus_mt5722450 bus_bt3664661] conns=[delta wye] wdg=1 kvs=[23 0.4] kvas=[5.0 5.0] xhl=4 %loadloss=1.5 tap=1.025 numtaps=5 maxtap=1.050 mintap=0.95
New Transformer.4500918926 buses=[bus_mt10253389 bus_bt10253388] conns=[delta wye] wdg=1 kvs=[23 0.4] kvas=[50.0 50.0] xhl=4 %loadloss=1.5 tap=1.025 numtaps=5 maxtap=1.050 mintap=0.95
New Transformer.4500923421 buses=[bus_mt10238967 bus_bt10238968] conns=[delta wye] wdg=1 kvs=[23 0.4] kvas=[15.0 15.0] xhl=4 %loadloss=1.5 tap=1.025 numtaps=5 maxtap=1.050 mintap=0.95
New Transformer.4500979877 buses=[bus_mt32626955 bus_bt3351612] conns=[delta wye] wdg=1 kvs=[23 0.4] kvas=[10.0 10.0] xhl=4 %loadloss=1.5 tap=1.025 numtaps=5 maxtap=1.050 mintap=0.95
New Transformer.4501048977 buses=[bus_mt5267624 bus_bt3150670] conns=[delta wye] wdg=1 kvs=[23 0.4] kvas=[25.0 25.0] xhl=4 %loadloss=1.5 tap=1.025 numtaps=5 maxtap=1.050 mintap=0.95
New Transformer.4501064776 buses=[bus_mt43372012 bus_bt43371986] conns=[delta wye] wdg=1 kvs=[23 0.4] kvas=[25.0 25.0] xhl=4 %loadloss=1.5 tap=1.025 numtaps=5 maxtap=1.050 mintap=0.95
New Transformer.4501069725 buses=[bus_mt5577401 bus_bt3288405] conns=[delta wye] wdg=1 kvs=[23 0.4] kvas=[15.0 15.0] xhl=4 %loadloss=1.5 tap=1.025 numtaps=5 maxtap=1.050 mintap=0.95
New Transformer.4501072687 buses=[bus_mt4782034 bus_bt4880934] conns=[delta wye] wdg=1 kvs=[23 0.4] kvas=[30.0 30.0] xhl=4 %loadloss=1.5 tap=1.025 numtaps=5 maxtap=1.050 mintap=0.95
New Transformer.4501089043 buses=[bus_mt8403502 bus_bt3846659] conns=[delta wye] wdg=1 kvs=[23 0.4] kvas=[5.0 5.0] xhl=4 %loadloss=1.5 tap=1.025 numtaps=5 maxtap=1.050 mintap=0.95
New Transformer.4501103801 buses=[bus_mt38614627 bus_bt38614654] conns=[delta wye] wdg=1 kvs=[23 0.4] kvas=[25.0 25.0] xhl=4 %loadloss=1.5 tap=1.025 numtaps=5 maxtap=1.050 mintap=0.95
New Transformer.4501108912 buses=[bus_mt4567255 bus_bt4622424] conns=[delta wye] wdg=1 kvs=[23 0.4] kvas=[30.0 30.0] xhl=4 %loadloss=1.5 tap=1.025 numtaps=5 maxtap=1.050 mintap=0.95
New Transformer.4501108920 buses=[bus_mt11609856 bus_bt11609857] conns=[delta wye] wdg=1 kvs=[23 0.4] kvas=[50.0 50.0] xhl=4 %loadloss=1.5 tap=1.025 numtaps=5 maxtap=1.050 mintap=0.95
New Transformer.4501108921 buses=[bus_mt11609881 bus_bt11609882] conns=[delta wye] wdg=1 kvs=[23 0.4] kvas=[50.0 50.0] xhl=4 %loadloss=1.5 tap=1.025 numtaps=5 maxtap=1.050 mintap=0.95
New Transformer.4501108922 buses=[bus_mt11610194 bus_bt11610195] conns=[delta wye] wdg=1 kvs=[23 0.4] kvas=[50.0 50.0] xhl=4 %loadloss=1.5 tap=1.025 numtaps=5 maxtap=1.050 mintap=0.95
New Transformer.4501118061 buses=[bus_mt112436632 bus_bt112436633] conns=[delta wye] wdg=1 kvs=[23 0.4] kvas=[15.0 15.0] xhl=4 %loadloss=1.5 tap=1.025 numtaps=5 maxtap=1.050 mintap=0.95
New Transformer.4501118062 buses=[bus_mt112439607 bus_bt112439608] conns=[delta wye] wdg=1 kvs=[23 0.4] kvas=[15.0 15.0] xhl=4 %loadloss=1.5 tap=1.025 numtaps=5 maxtap=1.050 mintap=0.95
New Transformer.4501121995 buses=[bus_mt10683473 bus_bt10683474] conns=[delta wye] wdg=1 kvs=[23 0.4] kvas=[50.0 50.0] xhl=4 %loadloss=1.5 tap=1.025 numtaps=5 maxtap=1.050 mintap=0.95
New Transformer.4501121996 buses=[bus_mt10683997 bus_bt10683998] conns=[delta wye] wdg=1 kvs=[23 0.4] kvas=[50.0 50.0] xhl=4 %loadloss=1.5 tap=1.025 numtaps=5 maxtap=1.050 mintap=0.95
New Transformer.4501121997 buses=[bus_mt10684009 bus_bt10684010] conns=[delta wye] wdg=1 kvs=[23 0.4] kvas=[50.0 50.0] xhl=4 %loadloss=1.5 tap=1.025 numtaps=5 maxtap=1.050 mintap=0.95
New Transformer.4501121999 buses=[bus_mt10683927 bus_bt10683928] conns=[delta wye] wdg=1 kvs=[23 0.4] kvas=[50.0 50.0] xhl=4 %loadloss=1.5 tap=1.025 numtaps=5 maxtap=1.050 mintap=0.95
New Transformer.4501122000 buses=[bus_mt9357429 bus_bt9357430] conns=[delta wye] wdg=1 kvs=[23 0.4] kvas=[50.0 50.0] xhl=4 %loadloss=1.5 tap=1.025 numtaps=5 maxtap=1.050 mintap=0.95
New Transformer.4501122002 buses=[bus_mt38077912 bus_bt9357476] conns=[delta wye] wdg=1 kvs=[23 0.4] kvas=[50.0 50.0] xhl=4 %loadloss=1.5 tap=1.025 numtaps=5 maxtap=1.050 mintap=0.95
New Transformer.4501133220 buses=[bus_mt14555123 bus_bt14555124] conns=[delta wye] wdg=1 kvs=[23 0.4] kvas=[5.0 5.0] xhl=4 %loadloss=1.5 tap=1.025 numtaps=5 maxtap=1.050 mintap=0.95
New Transformer.4501133718 buses=[bus_mt5007468 bus_bt4156343] conns=[delta wye] wdg=1 kvs=[23 0.4] kvas=[15.0 15.0] xhl=4 %loadloss=1.5 tap=1.025 numtaps=5 maxtap=1.050 mintap=0.95
New Transformer.4501133725 buses=[bus_mt5007468 bus_bt15155187] conns=[delta wye] wdg=1 kvs=[23 0.4] kvas=[10.0 10.0] xhl=4 %loadloss=1.5 tap=1.025 numtaps=5 maxtap=1.050 mintap=0.95
New Transformer.1016601 buses=[bus_mt5172839 bus_bt3444601] conns=[delta wye] wdg=1 kvs=[23 0.4] kvas=[15.0 15.0] xhl=4 %loadloss=1.5 tap=1.025 numtaps=5 maxtap=1.050 mintap=0.95
New Transformer.1017302 buses=[bus_mt3747223 bus_bt4187106] conns=[delta wye] wdg=1 kvs=[23 0.4] kvas=[15.0 15.0] xhl=4 %loadloss=1.5 tap=1.025 numtaps=5 maxtap=1.050 mintap=0.95
New Transformer.1017401 buses=[bus_mt33345829 bus_bt33345830] conns=[delta wye] wdg=1 kvs=[23 0.4] kvas=[15.0 15.0] xhl=4 %loadloss=1.5 tap=1.025 numtaps=5 maxtap=1.050 mintap=0.95
New Transformer.1031201 buses=[bus_mt8489335 bus_bt8489172] conns=[delta wye] wdg=1 kvs=[23 0.4] kvas=[5.0 5.0] xhl=4 %loadloss=1.5 tap=1.025 numtaps=5 maxtap=1.050 mintap=0.95
New Transformer.1066601 buses=[bus_mt10041336 bus_bt10041337] conns=[delta wye] wdg=1 kvs=[23 0.4] kvas=[15.0 15.0] xhl=4 %loadloss=1.5 tap=1.025 numtaps=5 maxtap=1.050 mintap=0.95
New Transformer.1066701 buses=[bus_mt5535973 bus_bt4096567] conns=[delta wye] wdg=1 kvs=[23 0.4] kvas=[5.0 5.0] xhl=4 %loadloss=1.5 tap=1.025 numtaps=5 maxtap=1.050 mintap=0.95
New Transformer.1066801 buses=[bus_mt25564351 bus_bt25564352] conns=[delta wye] wdg=1 kvs=[23 0.4] kvas=[15.0 15.0] xhl=4 %loadloss=1.5 tap=1.025 numtaps=5 maxtap=1.050 mintap=0.95
New Transformer.1066901 buses=[bus_mt8533332 bus_bt8533312] conns=[delta wye] wdg=1 kvs=[23 0.4] kvas=[10.0 10.0] xhl=4 %loadloss=1.5 tap=1.025 numtaps=5 maxtap=1.050 mintap=0.95
New Transformer.1071301 buses=[bus_mt5436358 bus_bt3150682] conns=[delta wye] wdg=1 kvs=[23 0.4] kvas=[15.0 15.0] xhl=4 %loadloss=1.5 tap=1.025 numtaps=5 maxtap=1.050 mintap=0.95
New Transformer.1217702 buses=[bus_mt11469631 bus_bt11469632] conns=[delta wye] wdg=1 kvs=[23 0.4] kvas=[10.0 10.0] xhl=4 %loadloss=1.5 tap=1.025 numtaps=5 maxtap=1.050 mintap=0.95
New Transformer.1217801 buses=[bus_mt4438807 bus_bt3117967] conns=[delta wye] wdg=1 kvs=[23 0.4] kvas=[10.0 10.0] xhl=4 %loadloss=1.5 tap=1.025 numtaps=5 maxtap=1.050 mintap=0.95
New Transformer.1217901 buses=[bus_mt5576458 bus_bt4161577] conns=[delta wye] wdg=1 kvs=[23 0.4] kvas=[10.0 10.0] xhl=4 %loadloss=1.5 tap=1.025 numtaps=5 maxtap=1.050 mintap=0.95
New Transformer.1218901 buses=[bus_mt4422258 bus_bt3883426] conns=[delta wye] wdg=1 kvs=[23 0.4] kvas=[50.0 50.0] xhl=4 %loadloss=1.5 tap=1.025 numtaps=5 maxtap=1.050 mintap=0.95
New Transformer.1219101 buses=[bus_mt3712944 bus_bt8767713] conns=[delta wye] wdg=1 kvs=[23 0.4] kvas=[10.0 10.0] xhl=4 %loadloss=1.5 tap=1.025 numtaps=5 maxtap=1.050 mintap=0.95
New Transformer.1219301 buses=[bus_mt3557218 bus_bt8771328] conns=[delta wye] wdg=1 kvs=[23 0.4] kvas=[10.0 10.0] xhl=4 %loadloss=1.5 tap=1.025 numtaps=5 maxtap=1.050 mintap=0.95
New Transformer.1219401 buses=[bus_mt8771271 bus_bt8771274] conns=[delta wye] wdg=1 kvs=[23 0.4] kvas=[10.0 10.0] xhl=4 %loadloss=1.5 tap=1.025 numtaps=5 maxtap=1.050 mintap=0.95
New Transformer.1219602 buses=[bus_mt4651418 bus_bt3838453] conns=[delta wye] wdg=1 kvs=[23 0.4] kvas=[15.0 15.0] xhl=4 %loadloss=1.5 tap=1.025 numtaps=5 maxtap=1.050 mintap=0.95
New Transformer.1219701 buses=[bus_mt8767747 bus_bt8767749] conns=[delta wye] wdg=1 kvs=[23 0.4] kvas=[10.0 10.0] xhl=4 %loadloss=1.5 tap=1.025 numtaps=5 maxtap=1.050 mintap=0.95
New Transformer.1220101 buses=[bus_mt4551397 bus_bt3817910] conns=[delta wye] wdg=1 kvs=[23 0.4] kvas=[5.0 5.0] xhl=4 %loadloss=1.5 tap=1.025 numtaps=5 maxtap=1.050 mintap=0.95
New Transformer.1220203 buses=[bus_mt4766824 bus_bt3737651] conns=[delta wye] wdg=1 kvs=[23 0.4] kvas=[15.0 15.0] xhl=4 %loadloss=1.5 tap=1.025 numtaps=5 maxtap=1.050 mintap=0.95
New Transformer.1220501 buses=[bus_mt5198836 bus_bt2985842] conns=[delta wye] wdg=1 kvs=[23 0.4] kvas=[10.0 10.0] xhl=4 %loadloss=1.5 tap=1.025 numtaps=5 maxtap=1.050 mintap=0.95
New Transformer.1221101 buses=[bus_mt4693705 bus_bt4220008] conns=[delta wye] wdg=1 kvs=[23 0.4] kvas=[5.0 5.0] xhl=4 %loadloss=1.5 tap=1.025 numtaps=5 maxtap=1.050 mintap=0.95
New Transformer.1221902 buses=[bus_mt14991878 bus_bt14991877] conns=[delta wye] wdg=1 kvs=[23 0.4] kvas=[5.0 5.0] xhl=4 %loadloss=1.5 tap=1.025 numtaps=5 maxtap=1.050 mintap=0.95
New Transformer.1222201 buses=[bus_mt5328226 bus_bt3087235] conns=[delta wye] wdg=1 kvs=[23 0.4] kvas=[5.0 5.0] xhl=4 %loadloss=1.5 tap=1.025 numtaps=5 maxtap=1.050 mintap=0.95
New Transformer.1222601 buses=[bus_mt3605554 bus_bt3121744] conns=[delta wye] wdg=1 kvs=[23 0.4] kvas=[5.0 5.0] xhl=4 %loadloss=1.5 tap=1.025 numtaps=5 maxtap=1.050 mintap=0.95
New Transformer.1222702 buses=[bus_mt5675241 bus_bt10239113] conns=[delta wye] wdg=1 kvs=[23 0.4] kvas=[10.0 10.0] xhl=4 %loadloss=1.5 tap=1.025 numtaps=5 maxtap=1.050 mintap=0.95
New Transformer.1222801 buses=[bus_mt5726702 bus_bt3190153] conns=[delta wye] wdg=1 kvs=[23 0.4] kvas=[5.0 5.0] xhl=4 %loadloss=1.5 tap=1.025 numtaps=5 maxtap=1.050 mintap=0.95
New Transformer.1222901 buses=[bus_mt5068208 bus_bt3351617] conns=[delta wye] wdg=1 kvs=[23 0.4] kvas=[5.0 5.0] xhl=4 %loadloss=1.5 tap=1.025 numtaps=5 maxtap=1.050 mintap=0.95
New Transformer.1223301 buses=[bus_mt3972734 bus_bt2988581] conns=[delta wye] wdg=1 kvs=[23 0.4] kvas=[5.0 5.0] xhl=4 %loadloss=1.5 tap=1.025 numtaps=5 maxtap=1.050 mintap=0.95
New Transformer.1223401 buses=[bus_mt5482251 bus_bt3552913] conns=[delta wye] wdg=1 kvs=[23 0.4] kvas=[10.0 10.0] xhl=4 %loadloss=1.5 tap=1.025 numtaps=5 maxtap=1.050 mintap=0.95
New Transformer.1223701 buses=[bus_mt33805183 bus_bt33805182] conns=[delta wye] wdg=1 kvs=[23 0.4] kvas=[15.0 15.0] xhl=4 %loadloss=1.5 tap=1.025 numtaps=5 maxtap=1.050 mintap=0.95
New Transformer.1223801 buses=[bus_mt14555513 bus_bt14555514] conns=[delta wye] wdg=1 kvs=[23 0.4] kvas=[5.0 5.0] xhl=4 %loadloss=1.5 tap=1.025 numtaps=5 maxtap=1.050 mintap=0.95
New Transformer.1223901 buses=[bus_mt5603127 bus_bt3909938] conns=[delta wye] wdg=1 kvs=[23 0.4] kvas=[5.0 5.0] xhl=4 %loadloss=1.5 tap=1.025 numtaps=5 maxtap=1.050 mintap=0.95
New Transformer.1224101 buses=[bus_mt38851537 bus_bt18368888] conns=[delta wye] wdg=1 kvs=[23 0.4] kvas=[5.0 5.0] xhl=4 %loadloss=1.5 tap=1.025 numtaps=5 maxtap=1.050 mintap=0.95
New Transformer.1224201 buses=[bus_mt5569617 bus_bt3014565] conns=[delta wye] wdg=1 kvs=[23 0.4] kvas=[5.0 5.0] xhl=4 %loadloss=1.5 tap=1.025 numtaps=5 maxtap=1.050 mintap=0.95
New Transformer.1224301 buses=[bus_mt5526613 bus_bt15136119] conns=[delta wye] wdg=1 kvs=[23 0.4] kvas=[10.0 10.0] xhl=4 %loadloss=1.5 tap=1.025 numtaps=5 maxtap=1.050 mintap=0.95
New Transformer.1225101 buses=[bus_mt3649831 bus_bt2998324] conns=[delta wye] wdg=1 kvs=[23 0.4] kvas=[5.0 5.0] xhl=4 %loadloss=1.5 tap=1.025 numtaps=5 maxtap=1.050 mintap=0.95
New Transformer.1225201 buses=[bus_mt5588475 bus_bt3087225] conns=[delta wye] wdg=1 kvs=[23 0.4] kvas=[15.0 15.0] xhl=4 %loadloss=1.5 tap=1.025 numtaps=5 maxtap=1.050 mintap=0.95
New Transformer.1225402 buses=[bus_mt17701309 bus_bt17701310] conns=[delta wye] wdg=1 kvs=[23 0.4] kvas=[15.0 15.0] xhl=4 %loadloss=1.5 tap=1.025 numtaps=5 maxtap=1.050 mintap=0.95
New Transformer.1225701 buses=[bus_mt5561252 bus_bt3019691] conns=[delta wye] wdg=1 kvs=[23 0.4] kvas=[10.0 10.0] xhl=4 %loadloss=1.5 tap=1.025 numtaps=5 maxtap=1.050 mintap=0.95
New Transformer.1225801 buses=[bus_mt4598164 bus_bt2979232] conns=[delta wye] wdg=1 kvs=[23 0.4] kvas=[10.0 10.0] xhl=4 %loadloss=1.5 tap=1.025 numtaps=5 maxtap=1.050 mintap=0.95
New Transformer.1225901 buses=[bus_mt4560945 bus_bt4391853] conns=[delta wye] wdg=1 kvs=[23 0.4] kvas=[5.0 5.0] xhl=4 %loadloss=1.5 tap=1.025 numtaps=5 maxtap=1.050 mintap=0.95
New Transformer.1226101 buses=[bus_mt3383815 bus_bt3004914] conns=[delta wye] wdg=1 kvs=[23 0.4] kvas=[5.0 5.0] xhl=4 %loadloss=1.5 tap=1.025 numtaps=5 maxtap=1.050 mintap=0.95
New Transformer.1226201 buses=[bus_mt4819455 bus_bt3067555] conns=[delta wye] wdg=1 kvs=[23 0.4] kvas=[15.0 15.0] xhl=4 %loadloss=1.5 tap=1.025 numtaps=5 maxtap=1.050 mintap=0.95
New Transformer.1226501 buses=[bus_mt10179662 bus_bt10179663] conns=[delta wye] wdg=1 kvs=[23 0.4] kvas=[5.0 5.0] xhl=4 %loadloss=1.5 tap=1.025 numtaps=5 maxtap=1.050 mintap=0.95
New Transformer.1226602 buses=[bus_mt5377424 bus_bt3411169] conns=[delta wye] wdg=1 kvs=[23 0.4] kvas=[5.0 5.0] xhl=4 %loadloss=1.5 tap=1.025 numtaps=5 maxtap=1.050 mintap=0.95
New Transformer.1226701 buses=[bus_mt10179645 bus_bt10179644] conns=[delta wye] wdg=1 kvs=[23 0.4] kvas=[5.0 5.0] xhl=4 %loadloss=1.5 tap=1.025 numtaps=5 maxtap=1.050 mintap=0.95
New Transformer.1227402 buses=[bus_mt4159150 bus_bt8767608] conns=[delta wye] wdg=1 kvs=[23 0.4] kvas=[15.0 15.0] xhl=4 %loadloss=1.5 tap=1.025 numtaps=5 maxtap=1.050 mintap=0.95
New Transformer.1227502 buses=[bus_mt5343236 bus_bt8767665] conns=[delta wye] wdg=1 kvs=[23 0.4] kvas=[10.0 10.0] xhl=4 %loadloss=1.5 tap=1.025 numtaps=5 maxtap=1.050 mintap=0.95
New Transformer.1228001 buses=[bus_mt5677608 bus_bt3760198] conns=[delta wye] wdg=1 kvs=[23 0.4] kvas=[5.0 5.0] xhl=4 %loadloss=1.5 tap=1.025 numtaps=5 maxtap=1.050 mintap=0.95
New Transformer.1228301 buses=[bus_mt4361848 bus_bt3992716] conns=[delta wye] wdg=1 kvs=[23 0.4] kvas=[15.0 15.0] xhl=4 %loadloss=1.5 tap=1.025 numtaps=5 maxtap=1.050 mintap=0.95
New Transformer.1228501 buses=[bus_mt100541100 bus_bt100541101] conns=[delta wye] wdg=1 kvs=[23 0.4] kvas=[10.0 10.0] xhl=4 %loadloss=1.5 tap=1.025 numtaps=5 maxtap=1.050 mintap=0.95
New Transformer.1228901 buses=[bus_mt4639251 bus_bt3907062] conns=[delta wye] wdg=1 kvs=[23 0.4] kvas=[5.0 5.0] xhl=4 %loadloss=1.5 tap=1.025 numtaps=5 maxtap=1.050 mintap=0.95
New Transformer.1229101 buses=[bus_mt5358031 bus_bt4428547] conns=[delta wye] wdg=1 kvs=[23 0.4] kvas=[30.0 30.0] xhl=4 %loadloss=1.5 tap=1.025 numtaps=5 maxtap=1.050 mintap=0.95