New Line.mt46565 Bus1=bus_mt113218 Bus2=bus_mt69994 linecode=37 length=33 units=m
New Line.mt17752 Bus1=bus_mt114761 Bus2=bus_mt69996 linecode=37 length=28 units=m
New Line.mt12104 Bus1=bus_mt94872 Bus2=bus_mt69998 linecode=43 length=10 units=m
New Line.mt8629 Bus1=bus_mt81025 Bus2=bus_mt69999 linecode=40 length=24 units=m
New Line.mt24372 Bus1=bus_mt118187 Bus2=bus_mt70001 linecode=178 length=42 units=m
New Line.mt32369 Bus1=bus_mt83182 Bus2=bus_mt70003 linecode=43 length=12 units=m
New Line.mt55597 Bus1=bus_mt73778 Bus2=bus_mt70008 linecode=43 length=29 units=m
New Line.mt20140 Bus1=bus_mt73373 Bus2=bus_mt70063 linecode=195 length=28 units=m
New Line.mt14395 Bus1=bus_mt70180 Bus2=bus_mt70179 linecode=196 length=50 units=m
New Line.mt14394 Bus1=bus_mt70181 Bus2=bus_mt70180 linecode=196 length=25 units=m
New Line.mt14393 Bus1=bus_mt70182 Bus2=bus_mt70181 linecode=196 length=73 units=m
New Line.mt14392 Bus1=bus_mt70183 Bus2=bus_mt70182 linecode=196 length=59 units=m
New Line.mt48013 Bus1=bus_mt70184 Bus2=bus_mt70183 linecode=196 length=93 units=m
New Line.mt36878 Bus1=bus_mt70185 Bus2=bus_mt70184 linecode=196 length=31 units=m
New Line.mt48674 Bus1=bus_mt70189 Bus2=bus_mt70185 linecode=196 length=29 units=m
New Line.mt14396 Bus1=bus_mt70187 Bus2=bus_mt70186 linecode=196 length=26 units=m
New Line.mt48012 Bus1=bus_mt70188 Bus2=bus_mt70187 linecode=196 length=24 units=m
New Line.mt36879 Bus1=bus_mt70179 Bus2=bus_mt70188 linecode=196 length=67 units=m
New Line.mt57183 Bus1=bus_mt93619 Bus2=bus_mt70189 linecode=196 length=14 units=m
New Line.mt48019 Bus1=bus_mt89888 Bus2=bus_mt70909 linecode=196 length=41 units=m
New Line.mt36886 Bus1=bus_mt70909 Bus2=bus_mt70910 linecode=196 length=31 units=m
New Line.mt48018 Bus1=bus_mt70910 Bus2=bus_mt70911 linecode=196 length=39 units=m
New Line.mt36885 Bus1=bus_mt70911 Bus2=bus_mt70912 linecode=196 length=29 units=m
New Line.mt48093 Bus1=bus_mt70912 Bus2=bus_mt70913 linecode=196 length=36 units=m
New Line.mt36884 Bus1=bus_mt70913 Bus2=bus_mt70949 linecode=196 length=42 units=m
New Line.mt17880 Bus1=bus_mt112196 Bus2=bus_mt71155 linecode=40 length=41 units=m
New Line.mt46670 Bus1=bus_mt94829 Bus2=bus_mt71178 linecode=40 length=9 units=m
New Line.mt17933 Bus1=bus_mt71470 Bus2=bus_mt71469 linecode=40 length=32 units=m
New Line.mt17926 Bus1=bus_mt71472 Bus2=bus_mt71470 linecode=40 length=18 units=m
New Line.mt35573 Bus1=bus_mt71473 Bus2=bus_mt71472 linecode=40 length=13 units=m
New Line.mt46717 Bus1=bus_mt71475 Bus2=bus_mt71473 linecode=40 length=14 units=m
New Line.mt35572 Bus1=bus_mt71476 Bus2=bus_mt71475 linecode=40 length=20 units=m
New Line.mt46716 Bus1=bus_mt71477 Bus2=bus_mt71476 linecode=40 length=34 units=m
New Line.mt17919 Bus1=bus_mt71596 Bus2=bus_mt71477 linecode=119 length=15 units=m
New Line.mt17925 Bus1=bus_mt71477 Bus2=bus_mt71479 linecode=40 length=41 units=m
New Line.mt17924 Bus1=bus_mt71479 Bus2=bus_mt71480 linecode=40 length=25 units=m
New Line.mt46715 Bus1=bus_mt71480 Bus2=bus_mt71481 linecode=40 length=36 units=m
New Line.mt35571 Bus1=bus_mt71481 Bus2=bus_mt71482 linecode=40 length=29 units=m
New Line.mt46714 Bus1=bus_mt71482 Bus2=bus_mt71483 linecode=40 length=31 units=m
New Line.mt35570 Bus1=bus_mt71483 Bus2=bus_mt71484 linecode=40 length=25 units=m
New Line.mt46713 Bus1=bus_mt71593 Bus2=bus_mt71592 linecode=119 length=36 units=m
New Line.mt17921 Bus1=bus_mt88061 Bus2=bus_mt71593 linecode=119 length=12 units=m
New Line.mt17932 Bus1=bus_mt117064 Bus2=bus_mt71594 linecode=40 length=31 units=m
New Line.mt35574 Bus1=bus_mt88729 Bus2=bus_mt71595 linecode=119 length=12 units=m
New Line.mt17920 Bus1=bus_mt71595 Bus2=bus_mt71596 linecode=119 length=19 units=m
New Line.mt31211 Bus1=bus_mt94794 Bus2=bus_mt71638 linecode=40 length=30 units=m
New Line.mt23612 Bus1=bus_mt113700 Bus2=bus_mt71711 linecode=196 length=37 units=m
New Line.mt32400 Bus1=bus_mt74617 Bus2=bus_mt71712 linecode=196 length=34 units=m
New Line.mt40217 Bus1=bus_mt81208 Bus2=bus_mt71718 linecode=196 length=17 units=m
New Line.mt36032 Bus1=bus_mt85391 Bus2=bus_mt71769 linecode=40 length=10 units=m
New Line.mt36044 Bus1=bus_mt86567 Bus2=bus_mt82412 linecode=40 length=17 units=m
New Line.mt957 Bus1=bus_mt111562 Bus2=bus_mt72128 linecode=178 length=38 units=m
New Line.mt7792 Bus1=bus_mt72161 Bus2=bus_mt72160 linecode=25 length=27 units=m
New Line.mt21219 Bus1=bus_mt72162 Bus2=bus_mt72161 linecode=25 length=41 units=m
New Line.mt21218 Bus1=bus_mt72163 Bus2=bus_mt72162 linecode=25 length=41 units=m
New Line.mt21217 Bus1=bus_mt72164 Bus2=bus_mt72163 linecode=25 length=41 units=m
New Line.mt48450 Bus1=bus_mt72165 Bus2=bus_mt72164 linecode=25 length=41 units=m
New Line.mt37320 Bus1=bus_mt86585 Bus2=bus_mt72165 linecode=25 length=62 units=m
New Line.mt37319 Bus1=bus_mt72168 Bus2=bus_mt72166 linecode=25 length=40 units=m
New Line.mt20500 Bus1=bus_mt72169 Bus2=bus_mt72167 linecode=25 length=24 units=m
New Line.mt21216 Bus1=bus_mt123759 Bus2=bus_mt72168 linecode=25 length=38 units=m
New Line.mt38068 Bus1=bus_mt72170 Bus2=bus_mt72169 linecode=25 length=29 units=m
New Line.mt23967 Bus1=bus_mt84743 Bus2=bus_mt72170 linecode=25 length=19 units=m
New Line.mt37318 Bus1=bus_mt72172 Bus2=bus_mt72171 linecode=25 length=39 units=m
New Line.mt48449 Bus1=bus_mt72173 Bus2=bus_mt72172 linecode=25 length=39 units=m
New Line.mt19722 Bus1=bus_mt72167 Bus2=bus_mt72173 linecode=25 length=39 units=m
New Line.mt21465 Bus1=bus_mt111530 Bus2=bus_mt72557 linecode=196 length=19 units=m
New Line.mt18286 Bus1=bus_mt83101 Bus2=bus_mt72867 linecode=43 length=33 units=m
New Line.mt12786 Bus1=bus_mt72870 Bus2=bus_mt72868 linecode=40 length=23 units=m
New Line.mt46806 Bus1=bus_mt72880 Bus2=bus_mt72870 linecode=40 length=36 units=m
New Line.mt18026 Bus1=bus_mt72881 Bus2=bus_mt72880 linecode=40 length=35 units=m
New Line.mt35670 Bus1=bus_mt72883 Bus2=bus_mt72881 linecode=40 length=37 units=m
New Line.mt46805 Bus1=bus_mt132680 Bus2=bus_mt72883 linecode=40 length=17 units=m
New Line.mt47054 Bus1=bus_mt115451 Bus2=bus_mt72885 linecode=40 length=44 units=m
New Line.mt18027 Bus1=bus_mt125340 Bus2=bus_mt72887 linecode=40 length=34 units=m
New Line.mt36707 Bus1=bus_mt72868 Bus2=bus_mt72889 linecode=43 length=12 units=m
New Line.mt51272 Bus1=bus_mt73192 Bus2=bus_mt73185 linecode=196 length=25 units=m
New Line.mt51271 Bus1=bus_mt73192 Bus2=bus_mt73187 linecode=196 length=17 units=m
New Line.mt37577 Bus1=bus_mt73191 Bus2=bus_mt73189 linecode=196 length=41 units=m
New Line.mt48716 Bus1=bus_mt73185 Bus2=bus_mt73191 linecode=196 length=49 units=m
New Line.mt24301 Bus1=bus_mt81047 Bus2=bus_mt73192 linecode=257 length=30 units=m
New Line.mt37709 Bus1=bus_mt84102 Bus2=bus_mt73354 linecode=195 length=23 units=m
New Line.mt48849 Bus1=bus_mt73363 Bus2=bus_mt73362 linecode=195 length=28 units=m
New Line.mt37710 Bus1=bus_mt73364 Bus2=bus_mt73363 linecode=195 length=28 units=m
New Line.mt21767 Bus1=bus_mt73365 Bus2=bus_mt73364 linecode=195 length=28 units=m
New Line.mt48848 Bus1=bus_mt73354 Bus2=bus_mt73365 linecode=195 length=23 units=m
New Line.mt20141 Bus1=bus_mt70063 Bus2=bus_mt73372 linecode=195 length=34 units=m
New Line.mt37708 Bus1=bus_mt73374 Bus2=bus_mt73373 linecode=195 length=30 units=m
New Line.mt21766 Bus1=bus_mt73375 Bus2=bus_mt73374 linecode=195 length=29 units=m
New Line.mt48847 Bus1=bus_mt73376 Bus2=bus_mt73375 linecode=195 length=27 units=m
New Line.mt20139 Bus1=bus_mt119267 Bus2=bus_mt73376 linecode=195 length=28 units=m
New Line.mt32370 Bus1=bus_mt83184 Bus2=bus_mt73778 linecode=43 length=11 units=m
New Line.mt48856 Bus1=bus_mt73856 Bus2=bus_mt73854 linecode=196 length=21 units=m
New Line.mt20148 Bus1=bus_mt73858 Bus2=bus_mt73856 linecode=196 length=43 units=m
New Line.mt20147 Bus1=bus_mt73865 Bus2=bus_mt73858 linecode=196 length=35 units=m
New Line.mt20150 Bus1=bus_mt73947 Bus2=bus_mt73860 linecode=196 length=21 units=m
New Line.mt21774 Bus1=bus_mt73854 Bus2=bus_mt73862 linecode=196 length=41 units=m
New Line.mt37715 Bus1=bus_mt73862 Bus2=bus_mt73863 linecode=196 length=37 units=m
New Line.mt37714 Bus1=bus_mt73867 Bus2=bus_mt73865 linecode=196 length=32 units=m
New Line.mt21773 Bus1=bus_mt73869 Bus2=bus_mt73867 linecode=196 length=35 units=m
New Line.mt48859 Bus1=bus_mt73871 Bus2=bus_mt73869 linecode=196 length=31 units=m
New Line.mt20151 Bus1=bus_mt73947 Bus2=bus_mt73871 linecode=196 length=16 units=m
New Line.mt48858 Bus1=bus_mt73860 Bus2=bus_mt73946 linecode=196 length=50 units=m
New Line.mt37716 Bus1=bus_mt108251 Bus2=bus_mt73947 linecode=196 length=24 units=m
New Line.mt6908 Bus1=bus_mt89824 Bus2=bus_mt73966 linecode=195 length=36 units=m
New Line.mt34928 Bus1=bus_mt113271 Bus2=bus_mt74352 linecode=46 length=10 units=m
New Line.mt37732 Bus1=bus_mt74377 Bus2=bus_mt74354 linecode=196 length=52 units=m
New Line.mt20169 Bus1=bus_mt74352 Bus2=bus_mt74355 linecode=196 length=16 units=m
New Line.mt48876 Bus1=bus_mt74352 Bus2=bus_mt74357 linecode=196 length=33 units=m
New Line.mt48875 Bus1=bus_mt74355 Bus2=bus_mt74377 linecode=196 length=24 units=m
New Line.mt45813 Bus1=bus_mt74432 Bus2=bus_mt74430 linecode=196 length=37 units=m
New Line.mt45814 Bus1=bus_mt74448 Bus2=bus_mt74432 linecode=196 length=32 units=m
New Line.mt48879 Bus1=bus_mt74448 Bus2=bus_mt74434 linecode=195 length=20 units=m
New Line.mt37739 Bus1=bus_mt74434 Bus2=bus_mt74436 linecode=195 length=23 units=m
New Line.mt20172 Bus1=bus_mt74439 Bus2=bus_mt74437 linecode=195 length=39 units=m
New Line.mt37740 Bus1=bus_mt74443 Bus2=bus_mt74439 linecode=195 length=37 units=m
New Line.mt48880 Bus1=bus_mt74436 Bus2=bus_mt74442 linecode=195 length=12 units=m
New Line.mt21807 Bus1=bus_mt74446 Bus2=bus_mt74443 linecode=196 length=32 units=m
New Line.mt21806 Bus1=bus_mt74442 Bus2=bus_mt74446 linecode=195 length=26 units=m
New Line.mt19253 Bus1=bus_mt70949 Bus2=bus_mt74448 linecode=196 length=32 units=m
New Line.mt20173 Bus1=bus_mt74437 Bus2=bus_mt74454 linecode=195 length=32 units=m
New Line.mt48878 Bus1=bus_mt74430 Bus2=bus_mt74457 linecode=195 length=26 units=m
New Line.mt48952 Bus1=bus_mt74454 Bus2=bus_mt74460 linecode=195 length=43 units=m
New Line.mt21947 Bus1=bus_mt74460 Bus2=bus_mt74462 linecode=195 length=39 units=m
New Line.mt37831 Bus1=bus_mt74462 Bus2=bus_mt74469 linecode=195 length=33 units=m
New Line.mt38067 Bus1=bus_mt76421 Bus2=bus_mt74617 linecode=25 length=21 units=m
New Line.mt45066 Bus1=bus_mt109411 Bus2=bus_mt74618 linecode=178 length=56 units=m
New Line.mt42 Bus1=bus_mt78575 Bus2=bus_mt74619 linecode=64 length=35 units=m
New Line.mt13270 Bus1=bus_mt85281 Bus2=bus_mt74620 linecode=40 length=24 units=m
New Line.mt38085 Bus1=bus_mt74622 Bus2=bus_mt74621 linecode=28 length=9 units=m
New Line.mt49204 Bus1=bus_mt112964 Bus2=bus_mt74622 linecode=28 length=37 units=m
New Line.mt12548 Bus1=bus_mt69994 Bus2=bus_mt74623 linecode=37 length=31 units=m
New Line.mt37841 Bus1=bus_mt89849 Bus2=bus_mt74715 linecode=196 length=44 units=m
New Line.mt49044 Bus1=bus_mt75510 Bus2=bus_mt75508 linecode=64 length=31 units=m
New Line.mt37912 Bus1=bus_mt75512 Bus2=bus_mt75510 linecode=64 length=6 units=m
New Line.mt22059 Bus1=bus_mt75514 Bus2=bus_mt75512 linecode=64 length=24 units=m
New Line.mt49043 Bus1=bus_mt75516 Bus2=bus_mt75514 linecode=64 length=31 units=m
New Line.mt20354 Bus1=bus_mt75518 Bus2=bus_mt75516 linecode=64 length=23 units=m
New Line.mt58940 Bus1=bus_mt96822 Bus2=bus_mt75518 linecode=196 length=18 units=m
New Line.mt49045 Bus1=bus_mt75569 Bus2=bus_mt75567 linecode=64 length=31 units=m
New Line.mt20355 Bus1=bus_mt75571 Bus2=bus_mt75569 linecode=64 length=31 units=m
New Line.mt37913 Bus1=bus_mt75508 Bus2=bus_mt75571 linecode=64 length=31 units=m
New Line.mt22400 Bus1=bus_mt77569 Bus2=bus_mt76419 linecode=25 length=25 units=m
New Line.mt49188 Bus1=bus_mt113502 Bus2=bus_mt76421 linecode=25 length=20 units=m
New Line.mt22231 Bus1=bus_mt108563 Bus2=bus_mt76422 linecode=25 length=10 units=m
New Line.mt38071 Bus1=bus_mt76429 Bus2=bus_mt76427 linecode=25 length=31 units=m
New Line.mt49192 Bus1=bus_mt76431 Bus2=bus_mt76429 linecode=25 length=41 units=m
New Line.mt38070 Bus1=bus_mt76435 Bus2=bus_mt76431 linecode=25 length=36 units=m
New Line.mt20564 Bus1=bus_mt76433 Bus2=bus_mt76432 linecode=25 length=27 units=m
New Line.mt20516 Bus1=bus_mt76436 Bus2=bus_mt76433 linecode=25 length=27 units=m
New Line.mt49191 Bus1=bus_mt76432 Bus2=bus_mt76435 linecode=25 length=21 units=m
New Line.mt38025 Bus1=bus_mt76437 Bus2=bus_mt76436 linecode=25 length=43 units=m
New Line.mt49190 Bus1=bus_mt76438 Bus2=bus_mt76437 linecode=25 length=19 units=m
New Line.mt20515 Bus1=bus_mt76439 Bus2=bus_mt76438 linecode=25 length=20 units=m
New Line.mt38069 Bus1=bus_mt72160 Bus2=bus_mt76439 linecode=25 length=21 units=m
New Line.mt49189 Bus1=bus_mt86438 Bus2=bus_mt76441 linecode=25 length=17 units=m
New Line.mt22867 Bus1=bus_mt85207 Bus2=bus_mt76453 linecode=64 length=14 units=m
New Line.mt22275 Bus1=bus_mt85211 Bus2=bus_mt76550 linecode=205 length=9 units=m
New Line.mt20530 Bus1=bus_mt76602 Bus2=bus_mt76601 linecode=196 length=20 units=m
New Line.mt20529 Bus1=bus_mt74621 Bus2=bus_mt76602 linecode=178 length=19 units=m
New Line.mt49205 Bus1=bus_mt76604 Bus2=bus_mt76603 linecode=196 length=20 units=m
New Line.mt38086 Bus1=bus_mt74622 Bus2=bus_mt76604 linecode=178 length=19 units=m
New Line.mt20533 Bus1=bus_mt81208 Bus2=bus_mt76605 linecode=25 length=16 units=m
New Line.mt38127 Bus1=bus_mt76800 Bus2=bus_mt76784 linecode=257 length=35 units=m
New Line.mt49244 Bus1=bus_mt76784 Bus2=bus_mt76786 linecode=257 length=26 units=m
New Line.mt22299 Bus1=bus_mt76786 Bus2=bus_mt76788 linecode=257 length=37 units=m
New Line.mt38125 Bus1=bus_mt76788 Bus2=bus_mt76790 linecode=257 length=35 units=m
New Line.mt38126 Bus1=bus_mt111625 Bus2=bus_mt76797 linecode=257 length=26 units=m
New Line.mt49245 Bus1=bus_mt76797 Bus2=bus_mt76798 linecode=257 length=27 units=m
New Line.mt22300 Bus1=bus_mt76798 Bus2=bus_mt76800 linecode=257 length=35 units=m
New Line.mt49276 Bus1=bus_mt86941 Bus2=bus_mt77020 linecode=25 length=21 units=m
New Line.mt49277 Bus1=bus_mt74618 Bus2=bus_mt77021 linecode=196 length=32 units=m
New Line.mt47161 Bus1=bus_mt85280 Bus2=bus_mt77236 linecode=40 length=30 units=m
New Line.mt32102 Bus1=bus_mt72171 Bus2=bus_mt77569 linecode=25 length=11 units=m
New Line.mt49362 Bus1=bus_mt77635 Bus2=bus_mt77634 linecode=196 length=21 units=m
New Line.mt38241 Bus1=bus_mt77636 Bus2=bus_mt77635 linecode=196 length=39 units=m
New Line.mt47150 Bus1=bus_mt85282 Bus2=bus_mt77636 linecode=64 length=14 units=m
New Line.mt38251 Bus1=bus_mt77776 Bus2=bus_mt77774 linecode=64 length=27 units=m
New Line.mt49370 Bus1=bus_mt77778 Bus2=bus_mt77776 linecode=64 length=25 units=m
New Line.mt38250 Bus1=bus_mt77809 Bus2=bus_mt77778 linecode=64 length=19 units=m
New Line.mt49372 Bus1=bus_mt85442 Bus2=bus_mt77803 linecode=64 length=21 units=m
New Line.mt22418 Bus1=bus_mt77803 Bus2=bus_mt77805 linecode=64 length=19 units=m
New Line.mt22417 Bus1=bus_mt77805 Bus2=bus_mt77807 linecode=64 length=18 units=m
New Line.mt49371 Bus1=bus_mt85437 Bus2=bus_mt77809 linecode=64 length=22 units=m
New Line.mt24350 Bus1=bus_mt85146 Bus2=bus_mt78056 linecode=196 length=30 units=m
New Line.mt22474 Bus1=bus_mt78072 Bus2=bus_mt78070 linecode=64 length=18 units=m
New Line.mt22473 Bus1=bus_mt78074 Bus2=bus_mt78072 linecode=64 length=18 units=m
New Line.mt22475 Bus1=bus_mt78056 Bus2=bus_mt78074 linecode=64 length=21 units=m
New Line.mt34607 Bus1=bus_mt74619 Bus2=bus_mt78569 linecode=64 length=24 units=m
New Line.mt23512 Bus1=bus_mt78573 Bus2=bus_mt78571 linecode=64 length=36 units=m
New Line.mt50467 Bus1=bus_mt74619 Bus2=bus_mt78573 linecode=64 length=36 units=m
New Line.mt11021 Bus1=bus_mt116600 Bus2=bus_mt78575 linecode=49 length=9 units=m
New Line.mt11699 Bus1=bus_mt108335 Bus2=bus_mt78619 linecode=196 length=23 units=m
New Line.mt12465 Bus1=bus_mt90715 Bus2=bus_mt79014 linecode=178 length=38 units=m
New Line.mt342 Bus1=bus_mt79653 Bus2=bus_mt79408 linecode=196 length=23 units=m
New Line.mt34610 Bus1=bus_mt72557 Bus2=bus_mt79567 linecode=195 length=17 units=m
New Line.mt50724 Bus1=bus_mt72557 Bus2=bus_mt79568 linecode=195 length=9 units=m
New Line.mt23326 Bus1=bus_mt86013 Bus2=bus_mt79629 linecode=196 length=24 units=m
New Line.mt23778 Bus1=bus_mt86061 Bus2=bus_mt79653 linecode=196 length=17 units=m
New Line.mt50737 Bus1=bus_mt79674 Bus2=bus_mt79672 linecode=64 length=27 units=m
New Line.mt340 Bus1=bus_mt79676 Bus2=bus_mt79674 linecode=64 length=31 units=m
New Line.mt23777 Bus1=bus_mt79678 Bus2=bus_mt79676 linecode=64 length=19 units=m
New Line.mt39550 Bus1=bus_mt79680 Bus2=bus_mt79678 linecode=64 length=13 units=m
New Line.mt39566 Bus1=bus_mt79682 Bus2=bus_mt79680 linecode=64 length=27 units=m
New Line.mt50736 Bus1=bus_mt79684 Bus2=bus_mt79682 linecode=64 length=26 units=m
New Line.mt12346 Bus1=bus_mt89110 Bus2=bus_mt79684 linecode=196 length=20 units=m
New Line.mt945 Bus1=bus_mt86781 Bus2=bus_mt80629 linecode=196 length=38 units=m
New Line.mt31785 Bus1=bus_mt82914 Bus2=bus_mt81025 linecode=40 length=16 units=m
New Line.mt24326 Bus1=bus_mt81030 Bus2=bus_mt81028 linecode=64 length=11 units=m
New Line.mt40073 Bus1=bus_mt81030 Bus2=bus_mt81029 linecode=64 length=33 units=m
New Line.mt40038 Bus1=bus_mt81041 Bus2=bus_mt81030 linecode=257 length=26 units=m
New Line.mt51300 Bus1=bus_mt81028 Bus2=bus_mt81032 linecode=196 length=40 units=m
New Line.mt51298 Bus1=bus_mt81036 Bus2=bus_mt81035 linecode=64 length=54 units=m
New Line.mt24362 Bus1=bus_mt81032 Bus2=bus_mt81036 linecode=64 length=11 units=m
New Line.mt40041 Bus1=bus_mt86255 Bus2=bus_mt81037 linecode=257 length=35 units=m
New Line.mt40040 Bus1=bus_mt81037 Bus2=bus_mt81039 linecode=257 length=41 units=m
New Line.mt40039 Bus1=bus_mt81039 Bus2=bus_mt81041 linecode=257 length=44 units=m
New Line.mt40036 Bus1=bus_mt86256 Bus2=bus_mt81043 linecode=257 length=14 units=m
New Line.mt24298 Bus1=bus_mt81043 Bus2=bus_mt81045 linecode=257 length=26 units=m
New Line.mt51268 Bus1=bus_mt81045 Bus2=bus_mt81047 linecode=257 length=35 units=m
New Line.mt51270 Bus1=bus_mt73192 Bus2=bus_mt81049 linecode=257 length=14 units=m
New Line.mt24297 Bus1=bus_mt81049 Bus2=bus_mt81051 linecode=257 length=33 units=m
New Line.mt904 Bus1=bus_mt81051 Bus2=bus_mt81053 linecode=257 length=41 units=m
New Line.mt46370 Bus1=bus_mt89385 Bus2=bus_mt81055 linecode=119 length=13 units=m
New Line.mt51269 Bus1=bus_mt86254 Bus2=bus_mt81057 linecode=257 length=38 units=m
New Line.mt24300 Bus1=bus_mt81061 Bus2=bus_mt81059 linecode=257 length=25 units=m
New Line.mt51273 Bus1=bus_mt81063 Bus2=bus_mt81061 linecode=196 length=56 units=m
New Line.mt24299 Bus1=bus_mt81065 Bus2=bus_mt81063 linecode=257 length=36 units=m
New Line.mt40042 Bus1=bus_mt86255 Bus2=bus_mt81065 linecode=257 length=10 units=m
New Line.mt1042 Bus1=bus_mt81129 Bus2=bus_mt81128 linecode=196 length=13 units=m
New Line.mt1173 Bus1=bus_mt81036 Bus2=bus_mt81129 linecode=196 length=21 units=m
New Line.mt50916 Bus1=bus_mt113281 Bus2=bus_mt81208 linecode=25 length=30 units=m
New Line.mt17881 Bus1=bus_mt71155 Bus2=bus_mt81573 linecode=25 length=5 units=m
New Line.mt40328 Bus1=bus_mt119280 Bus2=bus_mt81661 linecode=196 length=14 units=m
New Line.mt40330 Bus1=bus_mt81661 Bus2=bus_mt81861 linecode=196 length=17 units=m
New Line.mt16895 Bus1=bus_mt88405 Bus2=bus_mt81967 linecode=196 length=13 units=m
New Line.mt24720 Bus1=bus_mt86543 Bus2=bus_mt82309 linecode=178 length=6 units=m
New Line.mt6260 Bus1=bus_mt82309 Bus2=bus_mt82311 linecode=196 length=30 units=m
New Line.mt56515 Bus1=bus_mt82311 Bus2=bus_mt82313 linecode=43 length=28 units=m
New Line.mt45389 Bus1=bus_mt82313 Bus2=bus_mt82315 linecode=43 length=29 units=m
New Line.mt45390 Bus1=bus_mt82315 Bus2=bus_mt82317 linecode=43 length=19 units=m
New Line.mt45391 Bus1=bus_mt82317 Bus2=bus_mt82318 linecode=43 length=19 units=m
New Line.mt45392 Bus1=bus_mt82318 Bus2=bus_mt82319 linecode=43 length=20 units=m
New Line.mt29597 Bus1=bus_mt82319 Bus2=bus_mt82320 linecode=40 length=36 units=m
New Line.mt56516 Bus1=bus_mt82320 Bus2=bus_mt82321 linecode=40 length=31 units=m
New Line.mt45393 Bus1=bus_mt82321 Bus2=bus_mt82322 linecode=40 length=26 units=m
New Line.mt29598 Bus1=bus_mt82322 Bus2=bus_mt82323 linecode=40 length=20 units=m
New Line.mt6261 Bus1=bus_mt82323 Bus2=bus_mt82325 linecode=40 length=47 units=m
New Line.mt6262 Bus1=bus_mt82325 Bus2=bus_mt82327 linecode=40 length=14 units=m
New Line.mt56517 Bus1=bus_mt82327 Bus2=bus_mt82329 linecode=43 length=16 units=m
New Line.mt45394 Bus1=bus_mt82329 Bus2=bus_mt82331 linecode=43 length=52 units=m
New Line.mt45395 Bus1=bus_mt82331 Bus2=bus_mt82333 linecode=43 length=26 units=m
New Line.mt45396 Bus1=bus_mt82333 Bus2=bus_mt82335 linecode=43 length=37 units=m
New Line.mt29599 Bus1=bus_mt82335 Bus2=bus_mt82337 linecode=43 length=31 units=m
New Line.mt56518 Bus1=bus_mt82337 Bus2=bus_mt82339 linecode=43 length=13 units=m
New Line.mt29600 Bus1=bus_mt82339 Bus2=bus_mt82340 linecode=43 length=19 units=m
New Line.mt13269 Bus1=bus_mt85279 Bus2=bus_mt82411 linecode=40 length=22 units=m
New Line.mt24705 Bus1=bus_mt82412 Bus2=bus_mt82413 linecode=196 length=12 units=m
New Line.mt34620 Bus1=bus_mt76788 Bus2=bus_mt82803 linecode=196 length=37 units=m
New Line.mt29305 Bus1=bus_mt83492 Bus2=bus_mt82877 linecode=40 length=19 units=m
New Line.mt6542 Bus1=bus_mt82877 Bus2=bus_mt82878 linecode=40 length=17 units=m
New Line.mt5287 Bus1=bus_mt82887 Bus2=bus_mt82880 linecode=40 length=34 units=m
New Line.mt47142 Bus1=bus_mt82882 Bus2=bus_mt82881 linecode=40 length=47 units=m
New Line.mt55587 Bus1=bus_mt82883 Bus2=bus_mt82882 linecode=40 length=52 units=m
New Line.mt5291 Bus1=bus_mt82884 Bus2=bus_mt82883 linecode=40 length=45 units=m
New Line.mt5290 Bus1=bus_mt82885 Bus2=bus_mt82884 linecode=40 length=32 units=m
New Line.mt5289 Bus1=bus_mt82886 Bus2=bus_mt82885 linecode=40 length=12 units=m
New Line.mt5288 Bus1=bus_mt82880 Bus2=bus_mt82886 linecode=40 length=21 units=m
New Line.mt28662 Bus1=bus_mt82888 Bus2=bus_mt82887 linecode=40 length=40 units=m
New Line.mt55586 Bus1=bus_mt82889 Bus2=bus_mt82888 linecode=40 length=41 units=m
New Line.mt5292 Bus1=bus_mt82878 Bus2=bus_mt82889 linecode=40 length=18 units=m
New Line.mt56524 Bus1=bus_mt70003 Bus2=bus_mt82901 linecode=43 length=17 units=m
New Line.mt29605 Bus1=bus_mt82922 Bus2=bus_mt82903 linecode=43 length=11 units=m
New Line.mt6267 Bus1=bus_mt92287 Bus2=bus_mt82906 linecode=40 length=20 units=m
New Line.mt55590 Bus1=bus_mt82915 Bus2=bus_mt82907 linecode=40 length=18 units=m
New Line.mt55589 Bus1=bus_mt82917 Bus2=bus_mt82911 linecode=40 length=42 units=m
New Line.mt28665 Bus1=bus_mt82918 Bus2=bus_mt82912 linecode=40 length=21 units=m
New Line.mt55592 Bus1=bus_mt82920 Bus2=bus_mt82914 linecode=40 length=37 units=m
New Line.mt28666 Bus1=bus_mt113723 Bus2=bus_mt82915 linecode=40 length=28 units=m
New Line.mt44463 Bus1=bus_mt82907 Bus2=bus_mt82916 linecode=40 length=27 units=m
New Line.mt7827 Bus1=bus_mt94291 Bus2=bus_mt82917 linecode=40 length=24 units=m
New Line.mt44462 Bus1=bus_mt82911 Bus2=bus_mt82918 linecode=40 length=17 units=m
New Line.mt55588 Bus1=bus_mt82912 Bus2=bus_mt82919 linecode=40 length=27 units=m
New Line.mt28664 Bus1=bus_mt82919 Bus2=bus_mt82920 linecode=40 length=21 units=m
New Line.mt45399 Bus1=bus_mt82901 Bus2=bus_mt82922 linecode=43 length=11 units=m
New Line.mt5301 Bus1=bus_mt83096 Bus2=bus_mt83067 linecode=40 length=17 units=m
New Line.mt45545 Bus1=bus_mt92748 Bus2=bus_mt83068 linecode=40 length=21 units=m
New Line.mt29876 Bus1=bus_mt83068 Bus2=bus_mt83069 linecode=196 length=19 units=m
New Line.mt55605 Bus1=bus_mt83069 Bus2=bus_mt83070 linecode=40 length=36 units=m
New Line.mt28678 Bus1=bus_mt83070 Bus2=bus_mt83071 linecode=40 length=28 units=m
New Line.mt55604 Bus1=bus_mt83071 Bus2=bus_mt83072 linecode=40 length=34 units=m
New Line.mt28675 Bus1=bus_mt83072 Bus2=bus_mt83073 linecode=40 length=51 units=m
New Line.mt5298 Bus1=bus_mt83073 Bus2=bus_mt83074 linecode=40 length=37 units=m
New Line.mt44477 Bus1=bus_mt83101 Bus2=bus_mt83075 linecode=40 length=43 units=m
New Line.mt44476 Bus1=bus_mt83075 Bus2=bus_mt83076 linecode=40 length=19 units=m
New Line.mt28674 Bus1=bus_mt83076 Bus2=bus_mt83077 linecode=40 length=19 units=m
New Line.mt55602 Bus1=bus_mt83077 Bus2=bus_mt83078 linecode=40 length=26 units=m
New Line.mt44475 Bus1=bus_mt83078 Bus2=bus_mt83079 linecode=40 length=24 units=m
New Line.mt44474 Bus1=bus_mt83079 Bus2=bus_mt83080 linecode=40 length=25 units=m
New Line.mt44473 Bus1=bus_mt83080 Bus2=bus_mt83081 linecode=40 length=49 units=m
New Line.mt28673 Bus1=bus_mt83081 Bus2=bus_mt83082 linecode=40 length=44 units=m
New Line.mt55601 Bus1=bus_mt83082 Bus2=bus_mt83083 linecode=40 length=48 units=m
New Line.mt44472 Bus1=bus_mt83083 Bus2=bus_mt83084 linecode=40 length=27 units=m
New Line.mt28672 Bus1=bus_mt83084 Bus2=bus_mt83085 linecode=40 length=25 units=m
New Line.mt5296 Bus1=bus_mt83085 Bus2=bus_mt83086 linecode=40 length=49 units=m
New Line.mt55600 Bus1=bus_mt83086 Bus2=bus_mt83087 linecode=40 length=49 units=m
New Line.mt44471 Bus1=bus_mt83087 Bus2=bus_mt83088 linecode=40 length=41 units=m
New Line.mt55599 Bus1=bus_mt83067 Bus2=bus_mt83095 linecode=40 length=18 units=m
New Line.mt28677 Bus1=bus_mt83088 Bus2=bus_mt83096 linecode=40 length=19 units=m
New Line.mt44468 Bus1=bus_mt83095 Bus2=bus_mt83097 linecode=40 length=27 units=m
New Line.mt28671 Bus1=bus_mt83097 Bus2=bus_mt83098 linecode=40 length=23 units=m
New Line.mt55598 Bus1=bus_mt83098 Bus2=bus_mt83099 linecode=40 length=39 units=m
New Line.mt44467 Bus1=bus_mt70008 Bus2=bus_mt83100 linecode=43 length=18 units=m
New Line.mt55603 Bus1=bus_mt83074 Bus2=bus_mt83101 linecode=40 length=42 units=m
New Line.mt19107 Bus1=bus_mt70008 Bus2=bus_mt83182 linecode=43 length=14 units=m
New Line.mt45032 Bus1=bus_mt83099 Bus2=bus_mt83184 linecode=196 length=22 units=m
New Line.mt5864 Bus1=bus_mt79408 Bus2=bus_mt83212 linecode=196 length=23 units=m
New Line.mt45130 Bus1=bus_mt83481 Bus2=bus_mt83367 linecode=40 length=25 units=m
New Line.mt45129 Bus1=bus_mt83494 Bus2=bus_mt83481 linecode=40 length=16 units=m
New Line.mt56230 Bus1=bus_mt83493 Bus2=bus_mt83492 linecode=40 length=30 units=m
New Line.mt29307 Bus1=bus_mt83367 Bus2=bus_mt83493 linecode=40 length=43 units=m
New Line.mt56229 Bus1=bus_mt83495 Bus2=bus_mt83494 linecode=40 length=32 units=m
New Line.mt5913 Bus1=bus_mt83496 Bus2=bus_mt83495 linecode=40 length=20 units=m
New Line.mt5912 Bus1=bus_mt83497 Bus2=bus_mt83496 linecode=40 length=32 units=m
New Line.mt5911 Bus1=bus_mt83498 Bus2=bus_mt83497 linecode=40 length=24 units=m
New Line.mt29304 Bus1=bus_mt83499 Bus2=bus_mt83498 linecode=40 length=23 units=m
New Line.mt56228 Bus1=bus_mt83500 Bus2=bus_mt83499 linecode=40 length=18 units=m
New Line.mt29303 Bus1=bus_mt88696 Bus2=bus_mt83500 linecode=40 length=20 units=m
New Line.mt56239 Bus1=bus_mt80629 Bus2=bus_mt83508 linecode=196 length=17 units=m
New Line.mt45138 Bus1=bus_mt83508 Bus2=bus_mt83512 linecode=64 length=14 units=m
New Line.mt45137 Bus1=bus_mt83508 Bus2=bus_mt83513 linecode=64 length=20 units=m
New Line.mt29313 Bus1=bus_mt83516 Bus2=bus_mt83514 linecode=64 length=33 units=m
New Line.mt45135 Bus1=bus_mt83513 Bus2=bus_mt83516 linecode=64 length=33 units=m
New Line.mt56364 Bus1=bus_mt83705 Bus2=bus_mt83701 linecode=178 length=34 units=m
New Line.mt515 Bus1=bus_mt94289 Bus2=bus_mt83705 linecode=178 length=59 units=m
New Line.mt45259 Bus1=bus_mt83701 Bus2=bus_mt83706 linecode=178 length=12 units=m
New Line.mt29169 Bus1=bus_mt115595 Bus2=bus_mt83714 linecode=205 length=23 units=m
New Line.mt339455 Bus1=bus_mt89819 Bus2=bus_mt84102 linecode=195 length=15 units=m
New Line.mt339459 Bus1=bus_mt89819 Bus2=bus_mt84102 linecode=195 length=15 units=m
New Line.mt50908 Bus1=bus_mt88500 Bus2=bus_mt84743 linecode=25 length=30 units=m
New Line.mt507 Bus1=bus_mt121503 Bus2=bus_mt84759 linecode=25 length=40 units=m
New Line.mt45094 Bus1=bus_mt114377 Bus2=bus_mt84889 linecode=196 length=37 units=m
New Line.mt18384 Bus1=bus_mt85099 Bus2=bus_mt85095 linecode=58 length=12 units=m
New Line.mt23311 Bus1=bus_mt85097 Bus2=bus_mt85096 linecode=58 length=24 units=m
New Line.mt35040 Bus1=bus_mt85098 Bus2=bus_mt85097 linecode=58 length=25 units=m
New Line.mt12163 Bus1=bus_mt74457 Bus2=bus_mt85098 linecode=58 length=27 units=m
New Line.mt17338 Bus1=bus_mt109432 Bus2=bus_mt85099 linecode=58 length=20 units=m
New Line.mt39019 Bus1=bus_mt118191 Bus2=bus_mt85143 linecode=196 length=16 units=m
New Line.mt24351 Bus1=bus_mt85442 Bus2=bus_mt85144 linecode=196 length=40 units=m
New Line.mt951 Bus1=bus_mt85144 Bus2=bus_mt85145 linecode=196 length=41 units=m
New Line.mt51327 Bus1=bus_mt85145 Bus2=bus_mt85146 linecode=196 length=35 units=m
New Line.mt20514 Bus1=bus_mt110951 Bus2=bus_mt85207 linecode=28 length=42 units=m
New Line.mt49193 Bus1=bus_mt76427 Bus2=bus_mt85211 linecode=25 length=17 units=m
New Line.mt12186 Bus1=bus_mt86049 Bus2=bus_mt85236 linecode=40 length=9 units=m
New Line.mt12188 Bus1=bus_mt85236 Bus2=bus_mt85238 linecode=40 length=23 units=m
New Line.mt12187 Bus1=bus_mt85238 Bus2=bus_mt85240 linecode=40 length=23 units=m
New Line.mt35056 Bus1=bus_mt85240 Bus2=bus_mt85242 linecode=40 length=33 units=m
New Line.mt17363 Bus1=bus_mt85242 Bus2=bus_mt85244 linecode=40 length=37 units=m
New Line.mt23332 Bus1=bus_mt85244 Bus2=bus_mt85246 linecode=40 length=35 units=m
New Line.mt50718 Bus1=bus_mt85278 Bus2=bus_mt85276 linecode=196 length=26 units=m
New Line.mt58276 Bus1=bus_mt123240 Bus2=bus_mt85277 linecode=196 length=47 units=m
New Line.mt139 Bus1=bus_mt74620 Bus2=bus_mt85278 linecode=196 length=19 units=m
New Line.mt13268 Bus1=bus_mt77236 Bus2=bus_mt85279 linecode=40 length=41 units=m
New Line.mt36045 Bus1=bus_mt74620 Bus2=bus_mt85280 linecode=40 length=21 units=m
New Line.mt47160 Bus1=bus_mt85282 Bus2=bus_mt85281 linecode=40 length=44 units=m
New Line.mt36708 Bus1=bus_mt86032 Bus2=bus_mt85282 linecode=40 length=18 units=m
New Line.mt17934 Bus1=bus_mt93902 Bus2=bus_mt85283 linecode=40 length=11 units=m
New Line.mt12695 Bus1=bus_mt117421 Bus2=bus_mt85391 linecode=40 length=37 units=m