New Linecode.1 nphases=3 r1=0.00150600 x1=0.00042500 r0=0.00165400 x0=0.00042500 units=m baseFreq=50 Normamps=301.75 
New Linecode.2 nphases=3 r1=0.00150600 x1=0.00042500 r0=0.00165400 x0=0.00042500 units=m baseFreq=50 Normamps=368.05 
New Linecode.3 nphases=3 r1=0.00150600 x1=0.00042500 r0=0.00165400 x0=0.00165300 units=m baseFreq=50 Normamps=351.90 
New Linecode.4 nphases=3 r1=0.00150600 x1=0.00042500 r0=0.00165400 x0=0.00042500 units=m baseFreq=50 Normamps=999 
New Linecode.5 nphases=3 r1=0.00150600 x1=0.00042500 r0=0.00165400 x0=0.00042500 units=m baseFreq=50 Normamps=999 
New Linecode.6 nphases=3 r1=0.00150600 x1=0.00042500 r0=0.00165400 x0=0.00042500 units=m baseFreq=50 Normamps=999 
New Linecode.7 nphases=3 r1=0.00150600 x1=0.00042500 r0=0.00165400 x0=0.00042500 units=m baseFreq=50 Normamps=999 
New Linecode.8 nphases=3 r1=0.00150600 x1=0.00042500 r0=0.00165400 x0=0.00042500 units=m baseFreq=50 Normamps=999 
New Linecode.9 nphases=3 r1=0.00150600 x1=0.00042500 r0=0.00165400 x0=0.00042500 units=m baseFreq=50 Normamps=999 
New Linecode.10 nphases=3 r1=0.00150600 x1=0.00042500 r0=0.00165400 x0=0.00042500 units=m baseFreq=50 Normamps=999 
New Linecode.11 nphases=3 r1=0.00150600 x1=0.00042500 r0=0.00165400 x0=0.00042500 units=m baseFreq=50 Normamps=999 
New Linecode.12 nphases=3 r1=0.00150600 x1=0.00042500 r0=0.00165400 x0=0.00042500 units=m baseFreq=50 Normamps=255.00 
New Linecode.13 nphases=3 r1=0.00150600 x1=0.00042500 r0=0.00165400 x0=0.00042500 units=m baseFreq=50 Normamps=378.25 
New Linecode.14 nphases=3 r1=0.00150600 x1=0.00042500 r0=0.00165400 x0=0.00042500 units=m baseFreq=50 Normamps=131.75 
New Linecode.15 nphases=3 r1=0.00150600 x1=0.00042500 r0=0.00165400 x0=0.00042500 units=m baseFreq=50 Normamps=178.50 
New Linecode.16 nphases=3 r1=0.00150600 x1=0.00042500 r0=0.00165400 x0=0.00042500 units=m baseFreq=50 Normamps=255.00 
New Linecode.17 nphases=3 r1=0.00150600 x1=0.00042500 r0=0.00165400 x0=0.00042500 units=m baseFreq=50 Normamps=378.25 
New Linecode.18 nphases=3 r1=0.00150600 x1=0.00042500 r0=0.00165400 x0=0.00042500 units=m baseFreq=50 Normamps=131.75 
New Linecode.19 nphases=3 r1=0.00150600 x1=0.00042500 r0=0.00165400 x0=0.00042500 units=m baseFreq=50 Normamps=178.50 
New Linecode.20 nphases=3 r1=0.00059200 x1=0.00037300 r0=0.00074000 x0=0.00160000 units=m baseFreq=50 Normamps=170.00 
New Linecode.21 nphases=3 r1=0.00059200 x1=0.00037300 r0=0.00074000 x0=0.00160000 units=m baseFreq=50 Normamps=170.00 
New Linecode.22 nphases=3 r1=0.00059200 x1=0.00037300 r0=0.00074000 x0=0.00160000 units=m baseFreq=50 Normamps=170.00 
New Linecode.23 nphases=3 r1=0.00018500 x1=0.00026100 r0=0.00030000 x0=0.00161800 units=m baseFreq=50 Normamps=352.75 
New Linecode.24 nphases=3 r1=0.00018500 x1=0.00026100 r0=0.00030000 x0=0.00161800 units=m baseFreq=50 Normamps=352.75 
New Linecode.25 nphases=3 r1=0.00018500 x1=0.00026100 r0=0.00030000 x0=0.00161800 units=m baseFreq=50 Normamps=352.75 
New Linecode.26 nphases=3 r1=0.00029600 x1=0.00038200 r0=0.00044400 x0=0.00157800 units=m baseFreq=50 Normamps=262.65 
New Linecode.27 nphases=3 r1=0.00029600 x1=0.00038200 r0=0.00044400 x0=0.00157800 units=m baseFreq=50 Normamps=262.65 
New Linecode.28 nphases=3 r1=0.00029600 x1=0.00038200 r0=0.00044400 x0=0.00157800 units=m baseFreq=50 Normamps=262.65 
New Linecode.29 nphases=3 r1=0.00048000 x1=0.00042500 r0=0.00165400 x0=0.00042500 units=m baseFreq=50 Normamps=200.60 
New Linecode.30 nphases=3 r1=0.00048000 x1=0.00042500 r0=0.00165400 x0=0.00042500 units=m baseFreq=50 Normamps=200.60 
New Linecode.31 nphases=3 r1=0.00048000 x1=0.00042500 r0=0.00165400 x0=0.00165300 units=m baseFreq=50 Normamps=200.60 
New Linecode.32 nphases=3 r1=0.00028400 x1=0.00042500 r0=0.00165400 x0=0.00042500 units=m baseFreq=50 Normamps=306.85 
New Linecode.33 nphases=3 r1=0.00028400 x1=0.00042500 r0=0.00165400 x0=0.00042500 units=m baseFreq=50 Normamps=306.85 
New Linecode.34 nphases=3 r1=0.00028400 x1=0.00042500 r0=0.00165400 x0=0.00160500 units=m baseFreq=50 Normamps=306.85 
New Linecode.35 nphases=3 r1=0.00030600 x1=0.00042500 r0=0.00165400 x0=0.00042500 units=m baseFreq=50 Normamps=295.80 
New Linecode.36 nphases=3 r1=0.00030600 x1=0.00042500 r0=0.00165400 x0=0.00042500 units=m baseFreq=50 Normamps=295.80 
New Linecode.37 nphases=3 r1=0.00030600 x1=0.00042500 r0=0.00165400 x0=0.00159800 units=m baseFreq=50 Normamps=295.80 
New Linecode.38 nphases=3 r1=0.00018400 x1=0.00042500 r0=0.00165400 x0=0.00042500 units=m baseFreq=50 Normamps=402.90 
New Linecode.39 nphases=3 r1=0.00018400 x1=0.00042500 r0=0.00165400 x0=0.00042500 units=m baseFreq=50 Normamps=402.90 
New Linecode.40 nphases=3 r1=0.00018400 x1=0.00042500 r0=0.00165400 x0=0.00161800 units=m baseFreq=50 Normamps=402.90 
New Linecode.41 nphases=3 r1=0.00020200 x1=0.00042500 r0=0.00165400 x0=0.00042500 units=m baseFreq=50 Normamps=368.05 
New Linecode.42 nphases=3 r1=0.00020200 x1=0.00042500 r0=0.00165400 x0=0.00042500 units=m baseFreq=50 Normamps=368.05 
New Linecode.43 nphases=3 r1=0.00020200 x1=0.00042500 r0=0.00165400 x0=0.00161800 units=m baseFreq=50 Normamps=368.05 
New Linecode.44 nphases=3 r1=0.00094400 x1=0.00042500 r0=0.00165400 x0=0.00042500 units=m baseFreq=50 Normamps=130.05 
New Linecode.45 nphases=3 r1=0.00094400 x1=0.00042500 r0=0.00165400 x0=0.00165300 units=m baseFreq=50 Normamps=130.05 
New Linecode.46 nphases=3 r1=0.00094400 x1=0.00042500 r0=0.00165400 x0=0.00159800 units=m baseFreq=50 Normamps=130.05 
New Linecode.47 nphases=3 r1=0.00150600 x1=0.00042500 r0=0.00165400 x0=0.00042500 units=m baseFreq=50 Normamps=999 
New Linecode.48 nphases=3 r1=0.00150600 x1=0.00042500 r0=0.00165400 x0=0.00162500 units=m baseFreq=50 Normamps=402.90 
New Linecode.49 nphases=3 r1=0.00150600 x1=0.00042500 r0=0.00165400 x0=0.00165300 units=m baseFreq=50 Normamps=402.90 
New Linecode.50 nphases=3 r1=0.00150600 x1=0.00042500 r0=0.00165400 x0=0.00042500 units=m baseFreq=50 Normamps=999 
New Linecode.51 nphases=3 r1=0.00150600 x1=0.00042500 r0=0.00165400 x0=0.00042500 units=m baseFreq=50 Normamps=999 
New Linecode.52 nphases=3 r1=0.00150600 x1=0.00042500 r0=0.00165400 x0=0.00165300 units=m baseFreq=50 Normamps=90.10 
New Linecode.53 nphases=3 r1=0.00091600 x1=0.00042500 r0=0.00165400 x0=0.00042500 units=m baseFreq=50 Normamps=141.95 
New Linecode.54 nphases=3 r1=0.00091600 x1=0.00042500 r0=0.00165400 x0=0.00165300 units=m baseFreq=50 Normamps=141.95 
New Linecode.55 nphases=3 r1=0.00091600 x1=0.00042500 r0=0.00165400 x0=0.00159800 units=m baseFreq=50 Normamps=141.95 
New Linecode.56 nphases=3 r1=0.00094400 x1=0.00042500 r0=0.00165400 x0=0.00042500 units=m baseFreq=50 Normamps=130.05 
New Linecode.57 nphases=3 r1=0.00094400 x1=0.00042500 r0=0.00165400 x0=0.00165300 units=m baseFreq=50 Normamps=130.05 
New Linecode.58 nphases=3 r1=0.00094400 x1=0.00042500 r0=0.00165400 x0=0.00165300 units=m baseFreq=50 Normamps=130.05 
New Linecode.59 nphases=3 r1=0.00020200 x1=0.00042500 r0=0.00165400 x0=0.00042500 units=m baseFreq=50 Normamps=368.05 
New Linecode.60 nphases=3 r1=0.00020200 x1=0.00042500 r0=0.00165400 x0=0.00042500 units=m baseFreq=50 Normamps=368.05 
New Linecode.61 nphases=3 r1=0.00020200 x1=0.00042500 r0=0.00165400 x0=0.00161800 units=m baseFreq=50 Normamps=368.05 
New Linecode.62 nphases=3 r1=0.00176900 x1=0.00042500 r0=0.00165400 x0=0.00165300 units=m baseFreq=50 Normamps=90.10 
New Linecode.63 nphases=3 r1=0.00176900 x1=0.00042500 r0=0.00165400 x0=0.00165300 units=m baseFreq=50 Normamps=90.10 
New Linecode.64 nphases=3 r1=0.00176900 x1=0.00042500 r0=0.00165400 x0=0.00165300 units=m baseFreq=50 Normamps=90.10 
New Linecode.65 nphases=3 r1=0.00030600 x1=0.00042500 r0=0.00165400 x0=0.00042500 units=m baseFreq=50 Normamps=295.80 
New Linecode.66 nphases=3 r1=0.00030600 x1=0.00042500 r0=0.00165400 x0=0.00042500 units=m baseFreq=50 Normamps=295.80 
New Linecode.67 nphases=3 r1=0.00030600 x1=0.00042500 r0=0.00165400 x0=0.00042500 units=m baseFreq=50 Normamps=295.80 
New Linecode.68 nphases=3 r1=0.00045800 x1=0.00042500 r0=0.00165400 x0=0.00042500 units=m baseFreq=50 Normamps=219.30 
New Linecode.69 nphases=3 r1=0.00045800 x1=0.00042500 r0=0.00165400 x0=0.00042500 units=m baseFreq=50 Normamps=219.30 
New Linecode.70 nphases=3 r1=0.00045800 x1=0.00042500 r0=0.00165400 x0=0.00160500 units=m baseFreq=50 Normamps=219.30 
New Linecode.71 nphases=3 r1=0.00048000 x1=0.00042500 r0=0.00165400 x0=0.00042500 units=m baseFreq=50 Normamps=200.60 
New Linecode.72 nphases=3 r1=0.00048000 x1=0.00042500 r0=0.00165400 x0=0.00042500 units=m baseFreq=50 Normamps=200.60 
New Linecode.73 nphases=3 r1=0.00048000 x1=0.00042500 r0=0.00165400 x0=0.00160500 units=m baseFreq=50 Normamps=200.60 
New Linecode.74 nphases=3 r1=0.00150600 x1=0.00042500 r0=0.00165400 x0=0.00042500 units=m baseFreq=50 Normamps=999 
New Linecode.75 nphases=3 r1=0.00150600 x1=0.00042500 r0=0.00165400 x0=0.00042500 units=m baseFreq=50 Normamps=999 
New Linecode.76 nphases=3 r1=0.00150600 x1=0.00042500 r0=0.00165400 x0=0.00042500 units=m baseFreq=50 Normamps=999 
New Linecode.77 nphases=3 r1=0.00150600 x1=0.00042500 r0=0.00165400 x0=0.00042500 units=m baseFreq=50 Normamps=999 
New Linecode.78 nphases=3 r1=0.00150600 x1=0.00042500 r0=0.00165400 x0=0.00042500 units=m baseFreq=50 Normamps=999 
New Linecode.79 nphases=3 r1=0.00150600 x1=0.00042500 r0=0.00165400 x0=0.00042500 units=m baseFreq=50 Normamps=999 
New Linecode.80 nphases=3 r1=0.00074300 x1=0.00040000 r0=0.00255600 x0=0.00152900 units=m baseFreq=50 Normamps=144.50 
New Linecode.81 nphases=3 r1=0.00074300 x1=0.00040000 r0=0.00255600 x0=0.00152900 units=m baseFreq=50 Normamps=144.50 
New Linecode.82 nphases=3 r1=0.00074300 x1=0.00040000 r0=0.00255600 x0=0.00152900 units=m baseFreq=50 Normamps=144.50 
New Linecode.83 nphases=3 r1=0.00150600 x1=0.00042500 r0=0.00165400 x0=0.00042500 units=m baseFreq=50 Normamps=999 
New Linecode.84 nphases=3 r1=0.00150600 x1=0.00042500 r0=0.00165400 x0=0.00042500 units=m baseFreq=50 Normamps=999 
New Linecode.85 nphases=3 r1=0.00150600 x1=0.00042500 r0=0.00165400 x0=0.00042500 units=m baseFreq=50 Normamps=999 
New Linecode.86 nphases=3 r1=0.00269600 x1=0.00041400 r0=0.00255600 x0=0.00152900 units=m baseFreq=50 Normamps=221.00 
New Linecode.87 nphases=3 r1=0.00028300 x1=0.00042500 r0=0.00165400 x0=0.00042500 units=m baseFreq=50 Normamps=151.30 
New Linecode.88 nphases=3 r1=0.00028300 x1=0.00042500 r0=0.00165400 x0=0.00042500 units=m baseFreq=50 Normamps=151.30 
New Linecode.89 nphases=3 r1=0.00028300 x1=0.00042500 r0=0.00165400 x0=0.00163700 units=m baseFreq=50 Normamps=151.30 
New Linecode.90 nphases=3 r1=0.00014000 x1=0.00042500 r0=0.00165400 x0=0.00042500 units=m baseFreq=50 Normamps=221.85 
New Linecode.91 nphases=3 r1=0.00014000 x1=0.00042500 r0=0.00165400 x0=0.00042500 units=m baseFreq=50 Normamps=221.85 
New Linecode.92 nphases=3 r1=0.00014000 x1=0.00042500 r0=0.00165400 x0=0.00159800 units=m baseFreq=50 Normamps=221.85 
New Linecode.93 nphases=3 r1=0.00150600 x1=0.00042500 r0=0.00165400 x0=0.00042500 units=m baseFreq=50 Normamps=999 
New Linecode.94 nphases=3 r1=0.00150600 x1=0.00042500 r0=0.00165400 x0=0.00042500 units=m baseFreq=50 Normamps=999 
New Linecode.95 nphases=3 r1=0.00150600 x1=0.00042500 r0=0.00165400 x0=0.00164500 units=m baseFreq=50 Normamps=999 
New Linecode.96 nphases=3 r1=0.00049500 x1=0.00042500 r0=0.00165400 x0=0.00163700 units=m baseFreq=50 Normamps=112.20 
New Linecode.97 nphases=3 r1=0.00049500 x1=0.00042500 r0=0.00165400 x0=0.00165300 units=m baseFreq=50 Normamps=112.20 
New Linecode.98 nphases=3 r1=0.00049500 x1=0.00042500 r0=0.00165400 x0=0.00159800 units=m baseFreq=50 Normamps=112.20 
New Linecode.99 nphases=3 r1=0.00150600 x1=0.00042500 r0=0.00165400 x0=0.00042500 units=m baseFreq=50 Normamps=999 
New Linecode.100 nphases=3 r1=0.00150600 x1=0.00042500 r0=0.00165400 x0=0.00042500 units=m baseFreq=50 Normamps=999 
New Linecode.101 nphases=3 r1=0.00150600 x1=0.00042500 r0=0.00165400 x0=0.00164500 units=m baseFreq=50 Normamps=90.10 
New Linecode.102 nphases=3 r1=0.00150600 x1=0.00042500 r0=0.00165400 x0=0.00042500 units=m baseFreq=50 Normamps=999 
New Linecode.103 nphases=3 r1=0.00150600 x1=0.00042500 r0=0.00165400 x0=0.00042500 units=m baseFreq=50 Normamps=999 
New Linecode.104 nphases=3 r1=0.00150600 x1=0.00042500 r0=0.00165400 x0=0.00164500 units=m baseFreq=50 Normamps=90.10 
New Linecode.105 nphases=3 r1=0.00150600 x1=0.00042500 r0=0.00165400 x0=0.00042500 units=m baseFreq=50 Normamps=999 
New Linecode.106 nphases=3 r1=0.00150600 x1=0.00042500 r0=0.00165400 x0=0.00165300 units=m baseFreq=50 Normamps=112.20 
New Linecode.107 nphases=3 r1=0.00150600 x1=0.00042500 r0=0.00165400 x0=0.00163700 units=m baseFreq=50 Normamps=151.30 
New Linecode.108 nphases=3 r1=0.00150600 x1=0.00042500 r0=0.00165400 x0=0.00042500 units=m baseFreq=50 Normamps=999 
New Linecode.109 nphases=3 r1=0.00150600 x1=0.00042500 r0=0.00165400 x0=0.00042500 units=m baseFreq=50 Normamps=999 
New Linecode.110 nphases=3 r1=0.00150600 x1=0.00042500 r0=0.00165400 x0=0.00164500 units=m baseFreq=50 Normamps=999 
New Linecode.111 nphases=3 r1=0.00028000 x1=0.00042500 r0=0.00165400 x0=0.00042500 units=m baseFreq=50 Normamps=208.25 
New Linecode.112 nphases=3 r1=0.00028000 x1=0.00042500 r0=0.00165400 x0=0.00042500 units=m baseFreq=50 Normamps=208.25 
New Linecode.113 nphases=3 r1=0.00028000 x1=0.00042500 r0=0.00165400 x0=0.00157800 units=m baseFreq=50 Normamps=208.25 
New Linecode.114 nphases=3 r1=0.00013800 x1=0.00042500 r0=0.00165400 x0=0.00042500 units=m baseFreq=50 Normamps=301.75 
New Linecode.115 nphases=3 r1=0.00013800 x1=0.00042500 r0=0.00165400 x0=0.00042500 units=m baseFreq=50 Normamps=301.75 
New Linecode.116 nphases=3 r1=0.00013800 x1=0.00042500 r0=0.00165400 x0=0.00161800 units=m baseFreq=50 Normamps=301.75 
New Linecode.117 nphases=3 r1=0.00008600 x1=0.00042500 r0=0.00165400 x0=0.00042500 units=m baseFreq=50 Normamps=396.95 
New Linecode.118 nphases=3 r1=0.00008600 x1=0.00042500 r0=0.00165400 x0=0.00042500 units=m baseFreq=50 Normamps=396.95 
New Linecode.119 nphases=3 r1=0.00008600 x1=0.00042500 r0=0.00165400 x0=0.00159800 units=m baseFreq=50 Normamps=396.95 
New Linecode.120 nphases=3 r1=0.00049000 x1=0.00042500 r0=0.00165400 x0=0.00042500 units=m baseFreq=50 Normamps=153.00 
New Linecode.121 nphases=3 r1=0.00049000 x1=0.00042500 r0=0.00165400 x0=0.00042500 units=m baseFreq=50 Normamps=153.00 
New Linecode.122 nphases=3 r1=0.00049000 x1=0.00042500 r0=0.00165400 x0=0.00165300 units=m baseFreq=50 Normamps=153.00 
New Linecode.123 nphases=3 r1=0.00016900 x1=0.00042500 r0=0.00165400 x0=0.00042500 units=m baseFreq=50 Normamps=270.30 
New Linecode.124 nphases=3 r1=0.00016900 x1=0.00042500 r0=0.00165400 x0=0.00165300 units=m baseFreq=50 Normamps=270.30 
New Linecode.125 nphases=3 r1=0.00016900 x1=0.00042500 r0=0.00165400 x0=0.00165300 units=m baseFreq=50 Normamps=270.30 
New Linecode.126 nphases=3 r1=0.00008400 x1=0.00042500 r0=0.00165400 x0=0.00042500 units=m baseFreq=50 Normamps=380.80 
New Linecode.127 nphases=3 r1=0.00008400 x1=0.00042500 r0=0.00165400 x0=0.00042500 units=m baseFreq=50 Normamps=380.80 
New Linecode.128 nphases=3 r1=0.00008400 x1=0.00042500 r0=0.00165400 x0=0.00159800 units=m baseFreq=50 Normamps=380.80 
New Linecode.129 nphases=3 r1=0.00058600 x1=0.00042500 r0=0.00165400 x0=0.00042500 units=m baseFreq=50 Normamps=131.75 
New Linecode.130 nphases=3 r1=0.00058600 x1=0.00042500 r0=0.00165400 x0=0.00162000 units=m baseFreq=50 Normamps=131.75 
New Linecode.131 nphases=3 r1=0.00058600 x1=0.00042500 r0=0.00165400 x0=0.00160500 units=m baseFreq=50 Normamps=131.75 
New Linecode.132 nphases=3 r1=0.00029600 x1=0.00042500 r0=0.00165400 x0=0.00165300 units=m baseFreq=50 Normamps=198.05 
New Linecode.133 nphases=3 r1=0.00029600 x1=0.00042500 r0=0.00165400 x0=0.00042500 units=m baseFreq=50 Normamps=198.05 
New Linecode.134 nphases=3 r1=0.00029600 x1=0.00042500 r0=0.00165400 x0=0.00165300 units=m baseFreq=50 Normamps=198.05 
New Linecode.135 nphases=3 r1=0.00010300 x1=0.00031000 r0=0.00033900 x0=0.00158300 units=m baseFreq=50 Normamps=552.50 
New Linecode.136 nphases=3 r1=0.00010300 x1=0.00031000 r0=0.00033900 x0=0.00158300 units=m baseFreq=50 Normamps=552.50 
New Linecode.137 nphases=3 r1=0.00149800 x1=0.00039900 r0=0.00045000 x0=0.00150000 units=m baseFreq=50 Normamps=95.20 
New Linecode.138 nphases=3 r1=0.00149800 x1=0.00039900 r0=0.00045000 x0=0.00150000 units=m baseFreq=50 Normamps=95.20 
New Linecode.139 nphases=3 r1=0.00149800 x1=0.00039900 r0=0.00045000 x0=0.00150000 units=m baseFreq=50 Normamps=95.20 
New Linecode.140 nphases=3 r1=0.00150600 x1=0.00042500 r0=0.00165400 x0=0.00042500 units=m baseFreq=50 Normamps=999 
New Linecode.141 nphases=3 r1=0.00150600 x1=0.00042500 r0=0.00165400 x0=0.00042500 units=m baseFreq=50 Normamps=999 
New Linecode.142 nphases=3 r1=0.00150600 x1=0.00042500 r0=0.00165400 x0=0.00042500 units=m baseFreq=50 Normamps=999 
New Linecode.143 nphases=3 r1=0.00018500 x1=0.00026100 r0=0.00030000 x0=0.00161800 units=m baseFreq=50 Normamps=352.75 
New Linecode.144 nphases=3 r1=0.00018500 x1=0.00026100 r0=0.00030000 x0=0.00161800 units=m baseFreq=50 Normamps=352.75 
New Linecode.145 nphases=3 r1=0.00018500 x1=0.00026100 r0=0.00030000 x0=0.00161800 units=m baseFreq=50 Normamps=352.75 
New Linecode.146 nphases=3 r1=0.00047300 x1=0.00042500 r0=0.00165400 x0=0.00042500 units=m baseFreq=50 Normamps=142.80 
New Linecode.147 nphases=3 r1=0.00047300 x1=0.00042500 r0=0.00165400 x0=0.00165300 units=m baseFreq=50 Normamps=142.80 
New Linecode.148 nphases=3 r1=0.00047300 x1=0.00042500 r0=0.00165400 x0=0.00165300 units=m baseFreq=50 Normamps=142.80 
New Linecode.149 nphases=3 r1=0.00150600 x1=0.00042500 r0=0.00165400 x0=0.00042500 units=m baseFreq=50 Normamps=999 
New Linecode.150 nphases=3 r1=0.00150600 x1=0.00042500 r0=0.00165400 x0=0.00042500 units=m baseFreq=50 Normamps=999 
New Linecode.151 nphases=3 r1=0.00150600 x1=0.00042500 r0=0.00165400 x0=0.00042500 units=m baseFreq=50 Normamps=999 
New Linecode.152 nphases=3 r1=0.00011600 x1=0.00042500 r0=0.00165400 x0=0.00042500 units=m baseFreq=50 Normamps=328.95 
New Linecode.153 nphases=3 r1=0.00011600 x1=0.00042500 r0=0.00165400 x0=0.00042500 units=m baseFreq=50 Normamps=328.95 
New Linecode.154 nphases=3 r1=0.00011600 x1=0.00042500 r0=0.00165400 x0=0.00042500 units=m baseFreq=50 Normamps=328.95 
New Linecode.155 nphases=3 r1=0.00150600 x1=0.00042500 r0=0.00165400 x0=0.00042500 units=m baseFreq=50 Normamps=999 
New Linecode.156 nphases=3 r1=0.00150600 x1=0.00042500 r0=0.00165400 x0=0.00042500 units=m baseFreq=50 Normamps=999 
New Linecode.157 nphases=3 r1=0.00150600 x1=0.00042500 r0=0.00165400 x0=0.00042500 units=m baseFreq=50 Normamps=999 
New Linecode.158 nphases=3 r1=0.00007900 x1=0.00042500 r0=0.00165400 x0=0.00042500 units=m baseFreq=50 Normamps=400.35 
New Linecode.159 nphases=3 r1=0.00007900 x1=0.00042500 r0=0.00165400 x0=0.00042500 units=m baseFreq=50 Normamps=400.35 
New Linecode.160 nphases=3 r1=0.00007900 x1=0.00042500 r0=0.00165400 x0=0.00161800 units=m baseFreq=50 Normamps=400.35 
New Linecode.161 nphases=3 r1=0.00150600 x1=0.00042500 r0=0.00165400 x0=0.00042500 units=m baseFreq=50 Normamps=999 
New Linecode.162 nphases=3 r1=0.00150600 x1=0.00042500 r0=0.00165400 x0=0.00042500 units=m baseFreq=50 Normamps=999 
New Linecode.163 nphases=3 r1=0.00150600 x1=0.00042500 r0=0.00165400 x0=0.00164500 units=m baseFreq=50 Normamps=151.30 
New Linecode.164 nphases=3 r1=0.00150600 x1=0.00042500 r0=0.00165400 x0=0.00164500 units=m baseFreq=50 Normamps=999 
New Linecode.165 nphases=3 r1=0.00150600 x1=0.00042500 r0=0.00165400 x0=0.00042500 units=m baseFreq=50 Normamps=999 
New Linecode.166 nphases=3 r1=0.00150600 x1=0.00042500 r0=0.00165400 x0=0.00165300 units=m baseFreq=50 Normamps=261.80 
New Linecode.167 nphases=3 r1=0.00150600 x1=0.00042500 r0=0.00165400 x0=0.00164500 units=m baseFreq=50 Normamps=999 
New Linecode.168 nphases=3 r1=0.00150600 x1=0.00042500 r0=0.00165400 x0=0.00164500 units=m baseFreq=50 Normamps=999 
New Linecode.169 nphases=3 r1=0.00150600 x1=0.00042500 r0=0.00165400 x0=0.00191000 units=m baseFreq=50 Normamps=159.80 
New Linecode.170 nphases=3 r1=0.00150600 x1=0.00042500 r0=0.00165400 x0=0.00042500 units=m baseFreq=50 Normamps=999 
New Linecode.171 nphases=3 r1=0.00150600 x1=0.00042500 r0=0.00165400 x0=0.00042500 units=m baseFreq=50 Normamps=999 
New Linecode.172 nphases=3 r1=0.00150600 x1=0.00042500 r0=0.00165400 x0=0.00042500 units=m baseFreq=50 Normamps=999 
New Linecode.173 nphases=3 r1=0.00048100 x1=0.00038600 r0=0.00062900 x0=0.00161300 units=m baseFreq=50 Normamps=194.65 
New Linecode.174 nphases=3 r1=0.00048100 x1=0.00038600 r0=0.00062900 x0=0.00161300 units=m baseFreq=50 Normamps=194.65 
New Linecode.175 nphases=3 r1=0.00048100 x1=0.00038600 r0=0.00062900 x0=0.00161300 units=m baseFreq=50 Normamps=194.65 
New Linecode.176 nphases=3 r1=0.00060700 x1=0.00039300 r0=0.00075500 x0=0.00162000 units=m baseFreq=50 Normamps=167.45 
New Linecode.177 nphases=3 r1=0.00060700 x1=0.00039300 r0=0.00075500 x0=0.00162000 units=m baseFreq=50 Normamps=167.45 
New Linecode.178 nphases=3 r1=0.00060700 x1=0.00039300 r0=0.00075500 x0=0.00162000 units=m baseFreq=50 Normamps=167.45 
New Linecode.179 nphases=3 r1=0.00060700 x1=0.00039300 r0=0.00075500 x0=0.00162000 units=m baseFreq=50 Normamps=167.45 
New Linecode.180 nphases=3 r1=0.00060700 x1=0.00039300 r0=0.00075500 x0=0.00162000 units=m baseFreq=50 Normamps=167.45 
New Linecode.181 nphases=3 r1=0.00060700 x1=0.00039300 r0=0.00075500 x0=0.00162000 units=m baseFreq=50 Normamps=167.45 
New Linecode.182 nphases=3 r1=0.00076300 x1=0.00039800 r0=0.00091100 x0=0.00162500 units=m baseFreq=50 Normamps=144.50 
New Linecode.183 nphases=3 r1=0.00076300 x1=0.00039800 r0=0.00091100 x0=0.00162500 units=m baseFreq=50 Normamps=144.50 
New Linecode.184 nphases=3 r1=0.00076300 x1=0.00039800 r0=0.00091100 x0=0.00162500 units=m baseFreq=50 Normamps=144.50 
New Linecode.185 nphases=3 r1=0.00076300 x1=0.00039800 r0=0.00091100 x0=0.00162500 units=m baseFreq=50 Normamps=144.50 
New Linecode.186 nphases=3 r1=0.00076300 x1=0.00039800 r0=0.00091100 x0=0.00162500 units=m baseFreq=50 Normamps=144.50 
New Linecode.187 nphases=3 r1=0.00076300 x1=0.00039800 r0=0.00091100 x0=0.00162500 units=m baseFreq=50 Normamps=144.50 
New Linecode.188 nphases=3 r1=0.00094400 x1=0.00041000 r0=0.00109200 x0=0.00163700 units=m baseFreq=50 Normamps=121.55 
New Linecode.189 nphases=3 r1=0.00094400 x1=0.00041000 r0=0.00109200 x0=0.00163700 units=m baseFreq=50 Normamps=121.55 
New Linecode.190 nphases=3 r1=0.00094400 x1=0.00041000 r0=0.00109200 x0=0.00163700 units=m baseFreq=50 Normamps=121.55 
New Linecode.191 nphases=3 r1=0.00094400 x1=0.00041000 r0=0.00109200 x0=0.00163700 units=m baseFreq=50 Normamps=121.55 
New Linecode.192 nphases=3 r1=0.00094400 x1=0.00041000 r0=0.00109200 x0=0.00163700 units=m baseFreq=50 Normamps=121.55 
New Linecode.193 nphases=3 r1=0.00094400 x1=0.00041000 r0=0.00109200 x0=0.00163700 units=m baseFreq=50 Normamps=121.55 
New Linecode.194 nphases=3 r1=0.00150600 x1=0.00042500 r0=0.00165400 x0=0.00165300 units=m baseFreq=50 Normamps=90.10 
New Linecode.195 nphases=3 r1=0.00150600 x1=0.00042500 r0=0.00165400 x0=0.00165300 units=m baseFreq=50 Normamps=90.10 
New Linecode.196 nphases=3 r1=0.00150600 x1=0.00042500 r0=0.00165400 x0=0.00165300 units=m baseFreq=50 Normamps=90.10 
New Linecode.197 nphases=3 r1=0.00150600 x1=0.00042500 r0=0.00165400 x0=0.00165300 units=m baseFreq=50 Normamps=90.10 
New Linecode.198 nphases=3 r1=0.00150600 x1=0.00042500 r0=0.00165400 x0=0.00165300 units=m baseFreq=50 Normamps=90.10 
New Linecode.199 nphases=3 r1=0.00150600 x1=0.00042500 r0=0.00165400 x0=0.00165300 units=m baseFreq=50 Normamps=90.10 
New Linecode.200 nphases=3 r1=0.00038100 x1=0.00037800 r0=0.00052900 x0=0.00160500 units=m baseFreq=50 Normamps=226.10 
New Linecode.201 nphases=3 r1=0.00038100 x1=0.00037800 r0=0.00052900 x0=0.00160500 units=m baseFreq=50 Normamps=226.10 
New Linecode.202 nphases=3 r1=0.00038100 x1=0.00037800 r0=0.00052900 x0=0.00160500 units=m baseFreq=50 Normamps=226.10 
New Linecode.203 nphases=3 r1=0.00030200 x1=0.00037100 r0=0.00045000 x0=0.00159800 units=m baseFreq=50 Normamps=261.80 
New Linecode.204 nphases=3 r1=0.00030200 x1=0.00037100 r0=0.00045000 x0=0.00159800 units=m baseFreq=50 Normamps=261.80 
New Linecode.205 nphases=3 r1=0.00030200 x1=0.00037100 r0=0.00045000 x0=0.00159800 units=m baseFreq=50 Normamps=261.80 
New Linecode.206 nphases=3 r1=0.00030200 x1=0.00037100 r0=0.00045000 x0=0.00159800 units=m baseFreq=50 Normamps=261.80 
New Linecode.207 nphases=3 r1=0.00030200 x1=0.00037100 r0=0.00045000 x0=0.00159800 units=m baseFreq=50 Normamps=261.80 
New Linecode.208 nphases=3 r1=0.00030200 x1=0.00037100 r0=0.00045000 x0=0.00159800 units=m baseFreq=50 Normamps=261.80 
New Linecode.209 nphases=3 r1=0.00019100 x1=0.00035600 r0=0.00033900 x0=0.00158300 units=m baseFreq=50 Normamps=351.90 
New Linecode.210 nphases=3 r1=0.00019100 x1=0.00035600 r0=0.00033900 x0=0.00158300 units=m baseFreq=50 Normamps=351.90 
New Linecode.211 nphases=3 r1=0.00019100 x1=0.00035600 r0=0.00033900 x0=0.00158300 units=m baseFreq=50 Normamps=351.90 
New Linecode.212 nphases=3 r1=0.00019100 x1=0.00035600 r0=0.00033900 x0=0.00158300 units=m baseFreq=50 Normamps=351.90 
New Linecode.213 nphases=3 r1=0.00019100 x1=0.00035600 r0=0.00033900 x0=0.00158300 units=m baseFreq=50 Normamps=351.90 
New Linecode.214 nphases=3 r1=0.00019100 x1=0.00035600 r0=0.00033900 x0=0.00158300 units=m baseFreq=50 Normamps=351.90 
New Linecode.215 nphases=3 r1=0.00145800 x1=0.00041700 r0=0.00134100 x0=0.00164500 units=m baseFreq=50 Normamps=97.75 
New Linecode.216 nphases=3 r1=0.00119300 x1=0.00041700 r0=0.00134100 x0=0.00164500 units=m baseFreq=50 Normamps=104.55 
New Linecode.217 nphases=3 r1=0.00119300 x1=0.00041700 r0=0.00134100 x0=0.00164500 units=m baseFreq=50 Normamps=104.55 
New Linecode.218 nphases=3 r1=0.00119300 x1=0.00041700 r0=0.00134100 x0=0.00164500 units=m baseFreq=50 Normamps=104.55 
New Linecode.219 nphases=3 r1=0.00119300 x1=0.00041700 r0=0.00134100 x0=0.00164500 units=m baseFreq=50 Normamps=104.55 
New Linecode.220 nphases=3 r1=0.00119300 x1=0.00041700 r0=0.00134100 x0=0.00164500 units=m baseFreq=50 Normamps=104.55 
New Linecode.221 nphases=3 r1=0.00119300 x1=0.00041700 r0=0.00134100 x0=0.00164500 units=m baseFreq=50 Normamps=104.55 
New Linecode.222 nphases=3 r1=0.00515400 x1=0.00042500 r0=0.00165400 x0=0.00042500 units=m baseFreq=50 Normamps=41.65 
New Linecode.223 nphases=3 r1=0.00119300 x1=0.00041700 r0=0.00134100 x0=0.00164500 units=m baseFreq=50 Normamps=104.55 
New Linecode.224 nphases=3 r1=0.00119300 x1=0.00041700 r0=0.00134100 x0=0.00164500 units=m baseFreq=50 Normamps=104.55 
New Linecode.225 nphases=3 r1=0.00119300 x1=0.00041700 r0=0.00134100 x0=0.00164500 units=m baseFreq=50 Normamps=104.55 
New Linecode.226 nphases=3 r1=0.00308700 x1=0.00041000 r0=0.00291900 x0=0.00163800 units=m baseFreq=50 Normamps=121.55 
New Linecode.227 nphases=3 r1=0.00308700 x1=0.00041000 r0=0.00291900 x0=0.00163800 units=m baseFreq=50 Normamps=121.55 
New Linecode.228 nphases=3 r1=0.00308700 x1=0.00041000 r0=0.00291900 x0=0.00163800 units=m baseFreq=50 Normamps=121.55 
New Linecode.229 nphases=3 r1=0.00024000 x1=0.00036300 r0=0.00033800 x0=0.00159000 units=m baseFreq=50 Normamps=303.45 
New Linecode.230 nphases=3 r1=0.00024000 x1=0.00036300 r0=0.00033800 x0=0.00159000 units=m baseFreq=50 Normamps=303.45 
New Linecode.231 nphases=3 r1=0.00048100 x1=0.00038600 r0=0.00062900 x0=0.00161300 units=m baseFreq=50 Normamps=194.65 
New Linecode.232 nphases=3 r1=0.00150600 x1=0.00042500 r0=0.00165400 x0=0.00042500 units=m baseFreq=50 Normamps=999 
New Linecode.233 nphases=3 r1=0.00179100 x1=0.00037500 r0=0.00255600 x0=0.00152900 units=m baseFreq=50 Normamps=144.50 
New Linecode.234 nphases=3 r1=0.00179100 x1=0.00037500 r0=0.00255600 x0=0.00152900 units=m baseFreq=50 Normamps=144.50 
New Linecode.235 nphases=3 r1=0.00179100 x1=0.00037500 r0=0.00255600 x0=0.00152900 units=m baseFreq=50 Normamps=144.50 
New Linecode.236 nphases=3 r1=0.00112600 x1=0.00043700 r0=0.00127400 x0=0.00147900 units=m baseFreq=50 Normamps=212.50 
New Linecode.237 nphases=3 r1=0.00112600 x1=0.00043700 r0=0.00127400 x0=0.00147900 units=m baseFreq=50 Normamps=212.50 
New Linecode.238 nphases=3 r1=0.00112600 x1=0.00043700 r0=0.00127400 x0=0.00147900 units=m baseFreq=50 Normamps=212.50 
New Linecode.239 nphases=3 r1=0.00070800 x1=0.00034600 r0=0.00255600 x0=0.00152900 units=m baseFreq=50 Normamps=263.50 
New Linecode.240 nphases=3 r1=0.00070800 x1=0.00034600 r0=0.00255600 x0=0.00152900 units=m baseFreq=50 Normamps=263.50 
New Linecode.241 nphases=3 r1=0.00070800 x1=0.00034600 r0=0.00255600 x0=0.00152900 units=m baseFreq=50 Normamps=263.50 
New Linecode.242 nphases=3 r1=0.00150600 x1=0.00042500 r0=0.00165400 x0=0.00042500 units=m baseFreq=50 Normamps=999 
New Linecode.243 nphases=3 r1=0.00225400 x1=0.00049400 r0=0.00255600 x0=0.00152900 units=m baseFreq=50 Normamps=90.10 
New Linecode.244 nphases=3 r1=0.00225400 x1=0.00049400 r0=0.00255600 x0=0.00152900 units=m baseFreq=50 Normamps=90.10 
New Linecode.245 nphases=3 r1=0.00018500 x1=0.00026100 r0=0.00030000 x0=0.00161800 units=m baseFreq=50 Normamps=352.75 
New Linecode.246 nphases=3 r1=0.00019100 x1=0.00020500 r0=0.00033900 x0=0.00158300 units=m baseFreq=50 Normamps=207.40 
New Linecode.247 nphases=3 r1=0.00118700 x1=0.00011900 r0=0.00120400 x0=0.00192800 units=m baseFreq=50 Normamps=368.05 
New Linecode.248 nphases=3 r1=0.00118700 x1=0.00011900 r0=0.00120400 x0=0.00192800 units=m baseFreq=50 Normamps=90.10 
New Linecode.249 nphases=3 r1=0.00118700 x1=0.00011900 r0=0.00120400 x0=0.00192800 units=m baseFreq=50 Normamps=999 
New Linecode.250 nphases=3 r1=0.00074500 x1=0.00032600 r0=0.00092300 x0=0.00191000 units=m baseFreq=50 Normamps=170.00 
New Linecode.251 nphases=3 r1=0.00074500 x1=0.00032600 r0=0.00092300 x0=0.00191000 units=m baseFreq=50 Normamps=170.00 
New Linecode.252 nphases=3 r1=0.00074500 x1=0.00032600 r0=0.00092300 x0=0.00191000 units=m baseFreq=50 Normamps=170.00 