New Line.mt46565 Bus1=bus_mt113218 Bus2=bus_mt69994 phases=3 r1=0.00030600 x1=0.00042500 r0=0.00165400 x0=0.00159800 Normamps=295.80 length=33 units=m
New Line.mt17752 Bus1=bus_mt114761 Bus2=bus_mt69996 phases=3 r1=0.00030600 x1=0.00042500 r0=0.00165400 x0=0.00159800 Normamps=295.80 length=28 units=m
New Line.mt12104 Bus1=bus_mt94872 Bus2=bus_mt69998 phases=3 r1=0.00020200 x1=0.00042500 r0=0.00165400 x0=0.00161800 Normamps=368.05 length=10 units=m
New Line.mt8629 Bus1=bus_mt81025 Bus2=bus_mt69999 phases=3 r1=0.00018400 x1=0.00042500 r0=0.00165400 x0=0.00161800 Normamps=402.90 length=24 units=m
New Line.mt24372 Bus1=bus_mt118187 Bus2=bus_mt70001 phases=3 r1=0.00060700 x1=0.00039300 r0=0.00075500 x0=0.00162000 Normamps=167.45 length=42 units=m
New Line.mt32369 Bus1=bus_mt83182 Bus2=bus_mt70003 phases=3 r1=0.00020200 x1=0.00042500 r0=0.00165400 x0=0.00161800 Normamps=368.05 length=12 units=m
New Line.mt55597 Bus1=bus_mt73778 Bus2=bus_mt70008 phases=3 r1=0.00020200 x1=0.00042500 r0=0.00165400 x0=0.00161800 Normamps=368.05 length=29 units=m
New Line.mt20140 Bus1=bus_mt73373 Bus2=bus_mt70063 phases=2 r1=0.00150600 x1=0.00042500 r0=0.00165400 x0=0.00165300 Normamps=90.10 length=28 units=m
New Line.mt14395 Bus1=bus_mt70180 Bus2=bus_mt70179 phases=3 r1=0.00150600 x1=0.00042500 r0=0.00165400 x0=0.00165300 Normamps=90.10 length=50 units=m
New Line.mt14394 Bus1=bus_mt70181 Bus2=bus_mt70180 phases=3 r1=0.00150600 x1=0.00042500 r0=0.00165400 x0=0.00165300 Normamps=90.10 length=25 units=m
New Line.mt14393 Bus1=bus_mt70182 Bus2=bus_mt70181 phases=3 r1=0.00150600 x1=0.00042500 r0=0.00165400 x0=0.00165300 Normamps=90.10 length=73 units=m
New Line.mt14392 Bus1=bus_mt70183 Bus2=bus_mt70182 phases=3 r1=0.00150600 x1=0.00042500 r0=0.00165400 x0=0.00165300 Normamps=90.10 length=59 units=m
New Line.mt48013 Bus1=bus_mt70184 Bus2=bus_mt70183 phases=3 r1=0.00150600 x1=0.00042500 r0=0.00165400 x0=0.00165300 Normamps=90.10 length=93 units=m
New Line.mt36878 Bus1=bus_mt70185 Bus2=bus_mt70184 phases=3 r1=0.00150600 x1=0.00042500 r0=0.00165400 x0=0.00165300 Normamps=90.10 length=31 units=m
New Line.mt48674 Bus1=bus_mt70189 Bus2=bus_mt70185 phases=3 r1=0.00150600 x1=0.00042500 r0=0.00165400 x0=0.00165300 Normamps=90.10 length=29 units=m
New Line.mt14396 Bus1=bus_mt70187 Bus2=bus_mt70186 phases=3 r1=0.00150600 x1=0.00042500 r0=0.00165400 x0=0.00165300 Normamps=90.10 length=26 units=m
New Line.mt48012 Bus1=bus_mt70188 Bus2=bus_mt70187 phases=3 r1=0.00150600 x1=0.00042500 r0=0.00165400 x0=0.00165300 Normamps=90.10 length=24 units=m
New Line.mt36879 Bus1=bus_mt70179 Bus2=bus_mt70188 phases=3 r1=0.00150600 x1=0.00042500 r0=0.00165400 x0=0.00165300 Normamps=90.10 length=67 units=m
New Line.mt57183 Bus1=bus_mt93619 Bus2=bus_mt70189 phases=3 r1=0.00150600 x1=0.00042500 r0=0.00165400 x0=0.00165300 Normamps=90.10 length=14 units=m
New Line.mt48019 Bus1=bus_mt89888 Bus2=bus_mt70909 phases=3 r1=0.00150600 x1=0.00042500 r0=0.00165400 x0=0.00165300 Normamps=90.10 length=41 units=m
New Line.mt36886 Bus1=bus_mt70909 Bus2=bus_mt70910 phases=3 r1=0.00150600 x1=0.00042500 r0=0.00165400 x0=0.00165300 Normamps=90.10 length=31 units=m
New Line.mt48018 Bus1=bus_mt70910 Bus2=bus_mt70911 phases=3 r1=0.00150600 x1=0.00042500 r0=0.00165400 x0=0.00165300 Normamps=90.10 length=39 units=m
New Line.mt36885 Bus1=bus_mt70911 Bus2=bus_mt70912 phases=3 r1=0.00150600 x1=0.00042500 r0=0.00165400 x0=0.00165300 Normamps=90.10 length=29 units=m
New Line.mt48093 Bus1=bus_mt70912 Bus2=bus_mt70913 phases=3 r1=0.00150600 x1=0.00042500 r0=0.00165400 x0=0.00165300 Normamps=90.10 length=36 units=m
New Line.mt36884 Bus1=bus_mt70913 Bus2=bus_mt70949 phases=3 r1=0.00150600 x1=0.00042500 r0=0.00165400 x0=0.00165300 Normamps=90.10 length=42 units=m
New Line.mt17880 Bus1=bus_mt112196 Bus2=bus_mt71155 phases=3 r1=0.00018400 x1=0.00042500 r0=0.00165400 x0=0.00161800 Normamps=402.90 length=41 units=m
New Line.mt46670 Bus1=bus_mt94829 Bus2=bus_mt71178 phases=3 r1=0.00018400 x1=0.00042500 r0=0.00165400 x0=0.00161800 Normamps=402.90 length=9 units=m
New Line.mt17933 Bus1=bus_mt71470 Bus2=bus_mt71469 phases=3 r1=0.00018400 x1=0.00042500 r0=0.00165400 x0=0.00161800 Normamps=402.90 length=32 units=m
New Line.mt17926 Bus1=bus_mt71472 Bus2=bus_mt71470 phases=3 r1=0.00018400 x1=0.00042500 r0=0.00165400 x0=0.00161800 Normamps=402.90 length=18 units=m
New Line.mt35573 Bus1=bus_mt71473 Bus2=bus_mt71472 phases=3 r1=0.00018400 x1=0.00042500 r0=0.00165400 x0=0.00161800 Normamps=402.90 length=13 units=m
New Line.mt46717 Bus1=bus_mt71475 Bus2=bus_mt71473 phases=3 r1=0.00018400 x1=0.00042500 r0=0.00165400 x0=0.00161800 Normamps=402.90 length=14 units=m
New Line.mt35572 Bus1=bus_mt71476 Bus2=bus_mt71475 phases=3 r1=0.00018400 x1=0.00042500 r0=0.00165400 x0=0.00161800 Normamps=402.90 length=20 units=m
New Line.mt46716 Bus1=bus_mt71477 Bus2=bus_mt71476 phases=3 r1=0.00018400 x1=0.00042500 r0=0.00165400 x0=0.00161800 Normamps=402.90 length=34 units=m
New Line.mt17919 Bus1=bus_mt71596 Bus2=bus_mt71477 phases=3 r1=0.00008600 x1=0.00042500 r0=0.00165400 x0=0.00159800 Normamps=396.95 length=15 units=m
New Line.mt17925 Bus1=bus_mt71477 Bus2=bus_mt71479 phases=3 r1=0.00018400 x1=0.00042500 r0=0.00165400 x0=0.00161800 Normamps=402.90 length=41 units=m
New Line.mt17924 Bus1=bus_mt71479 Bus2=bus_mt71480 phases=3 r1=0.00018400 x1=0.00042500 r0=0.00165400 x0=0.00161800 Normamps=402.90 length=25 units=m
New Line.mt46715 Bus1=bus_mt71480 Bus2=bus_mt71481 phases=3 r1=0.00018400 x1=0.00042500 r0=0.00165400 x0=0.00161800 Normamps=402.90 length=36 units=m
New Line.mt35571 Bus1=bus_mt71481 Bus2=bus_mt71482 phases=3 r1=0.00018400 x1=0.00042500 r0=0.00165400 x0=0.00161800 Normamps=402.90 length=29 units=m
New Line.mt46714 Bus1=bus_mt71482 Bus2=bus_mt71483 phases=3 r1=0.00018400 x1=0.00042500 r0=0.00165400 x0=0.00161800 Normamps=402.90 length=31 units=m
New Line.mt35570 Bus1=bus_mt71483 Bus2=bus_mt71484 phases=3 r1=0.00018400 x1=0.00042500 r0=0.00165400 x0=0.00161800 Normamps=402.90 length=25 units=m
New Line.mt46713 Bus1=bus_mt71593 Bus2=bus_mt71592 phases=3 r1=0.00008600 x1=0.00042500 r0=0.00165400 x0=0.00159800 Normamps=396.95 length=36 units=m
New Line.mt17921 Bus1=bus_mt88061 Bus2=bus_mt71593 phases=3 r1=0.00008600 x1=0.00042500 r0=0.00165400 x0=0.00159800 Normamps=396.95 length=12 units=m
New Line.mt17932 Bus1=bus_mt117064 Bus2=bus_mt71594 phases=3 r1=0.00018400 x1=0.00042500 r0=0.00165400 x0=0.00161800 Normamps=402.90 length=31 units=m
New Line.mt35574 Bus1=bus_mt88729 Bus2=bus_mt71595 phases=3 r1=0.00008600 x1=0.00042500 r0=0.00165400 x0=0.00159800 Normamps=396.95 length=12 units=m
New Line.mt17920 Bus1=bus_mt71595 Bus2=bus_mt71596 phases=3 r1=0.00008600 x1=0.00042500 r0=0.00165400 x0=0.00159800 Normamps=396.95 length=19 units=m
New Line.mt31211 Bus1=bus_mt94794 Bus2=bus_mt71638 phases=3 r1=0.00018400 x1=0.00042500 r0=0.00165400 x0=0.00161800 Normamps=402.90 length=30 units=m
New Line.mt23612 Bus1=bus_mt113700 Bus2=bus_mt71711 phases=3 r1=0.00150600 x1=0.00042500 r0=0.00165400 x0=0.00165300 Normamps=90.10 length=37 units=m
New Line.mt32400 Bus1=bus_mt74617 Bus2=bus_mt71712 phases=3 r1=0.00150600 x1=0.00042500 r0=0.00165400 x0=0.00165300 Normamps=90.10 length=34 units=m
New Line.mt40217 Bus1=bus_mt81208 Bus2=bus_mt71718 phases=3 r1=0.00150600 x1=0.00042500 r0=0.00165400 x0=0.00165300 Normamps=90.10 length=17 units=m
New Line.mt36032 Bus1=bus_mt85391 Bus2=bus_mt71769 phases=3 r1=0.00018400 x1=0.00042500 r0=0.00165400 x0=0.00161800 Normamps=402.90 length=10 units=m
New Line.mt36044 Bus1=bus_mt86567 Bus2=bus_mt82412 phases=3 r1=0.00018400 x1=0.00042500 r0=0.00165400 x0=0.00161800 Normamps=402.90 length=17 units=m
New Line.mt957 Bus1=bus_mt111562 Bus2=bus_mt72128 phases=3 r1=0.00060700 x1=0.00039300 r0=0.00075500 x0=0.00162000 Normamps=167.45 length=38 units=m
New Line.mt7792 Bus1=bus_mt72161 Bus2=bus_mt72160 phases=3 r1=0.00018500 x1=0.00026100 r0=0.00030000 x0=0.00161800 Normamps=352.75 length=27 units=m
New Line.mt21219 Bus1=bus_mt72162 Bus2=bus_mt72161 phases=3 r1=0.00018500 x1=0.00026100 r0=0.00030000 x0=0.00161800 Normamps=352.75 length=41 units=m
New Line.mt21218 Bus1=bus_mt72163 Bus2=bus_mt72162 phases=3 r1=0.00018500 x1=0.00026100 r0=0.00030000 x0=0.00161800 Normamps=352.75 length=41 units=m
New Line.mt21217 Bus1=bus_mt72164 Bus2=bus_mt72163 phases=3 r1=0.00018500 x1=0.00026100 r0=0.00030000 x0=0.00161800 Normamps=352.75 length=41 units=m
New Line.mt48450 Bus1=bus_mt72165 Bus2=bus_mt72164 phases=3 r1=0.00018500 x1=0.00026100 r0=0.00030000 x0=0.00161800 Normamps=352.75 length=41 units=m
New Line.mt37320 Bus1=bus_mt86585 Bus2=bus_mt72165 phases=3 r1=0.00018500 x1=0.00026100 r0=0.00030000 x0=0.00161800 Normamps=352.75 length=62 units=m
New Line.mt37319 Bus1=bus_mt72168 Bus2=bus_mt72166 phases=3 r1=0.00018500 x1=0.00026100 r0=0.00030000 x0=0.00161800 Normamps=352.75 length=40 units=m
New Line.mt20500 Bus1=bus_mt72169 Bus2=bus_mt72167 phases=3 r1=0.00018500 x1=0.00026100 r0=0.00030000 x0=0.00161800 Normamps=352.75 length=24 units=m
New Line.mt21216 Bus1=bus_mt123759 Bus2=bus_mt72168 phases=3 r1=0.00018500 x1=0.00026100 r0=0.00030000 x0=0.00161800 Normamps=352.75 length=38 units=m
New Line.mt38068 Bus1=bus_mt72170 Bus2=bus_mt72169 phases=3 r1=0.00018500 x1=0.00026100 r0=0.00030000 x0=0.00161800 Normamps=352.75 length=29 units=m
New Line.mt23967 Bus1=bus_mt84743 Bus2=bus_mt72170 phases=3 r1=0.00018500 x1=0.00026100 r0=0.00030000 x0=0.00161800 Normamps=352.75 length=19 units=m
New Line.mt37318 Bus1=bus_mt72172 Bus2=bus_mt72171 phases=3 r1=0.00018500 x1=0.00026100 r0=0.00030000 x0=0.00161800 Normamps=352.75 length=39 units=m
New Line.mt48449 Bus1=bus_mt72173 Bus2=bus_mt72172 phases=3 r1=0.00018500 x1=0.00026100 r0=0.00030000 x0=0.00161800 Normamps=352.75 length=39 units=m
New Line.mt19722 Bus1=bus_mt72167 Bus2=bus_mt72173 phases=3 r1=0.00018500 x1=0.00026100 r0=0.00030000 x0=0.00161800 Normamps=352.75 length=39 units=m
New Line.mt21465 Bus1=bus_mt111530 Bus2=bus_mt72557 phases=2 r1=0.00150600 x1=0.00042500 r0=0.00165400 x0=0.00165300 Normamps=90.10 length=19 units=m
New Line.mt18286 Bus1=bus_mt83101 Bus2=bus_mt72867 phases=3 r1=0.00020200 x1=0.00042500 r0=0.00165400 x0=0.00161800 Normamps=368.05 length=33 units=m
New Line.mt12786 Bus1=bus_mt72870 Bus2=bus_mt72868 phases=3 r1=0.00018400 x1=0.00042500 r0=0.00165400 x0=0.00161800 Normamps=402.90 length=23 units=m
New Line.mt46806 Bus1=bus_mt72880 Bus2=bus_mt72870 phases=3 r1=0.00018400 x1=0.00042500 r0=0.00165400 x0=0.00161800 Normamps=402.90 length=36 units=m
New Line.mt18026 Bus1=bus_mt72881 Bus2=bus_mt72880 phases=3 r1=0.00018400 x1=0.00042500 r0=0.00165400 x0=0.00161800 Normamps=402.90 length=35 units=m
New Line.mt35670 Bus1=bus_mt72883 Bus2=bus_mt72881 phases=3 r1=0.00018400 x1=0.00042500 r0=0.00165400 x0=0.00161800 Normamps=402.90 length=37 units=m
New Line.mt46805 Bus1=bus_mt132680 Bus2=bus_mt72883 phases=3 r1=0.00018400 x1=0.00042500 r0=0.00165400 x0=0.00161800 Normamps=402.90 length=17 units=m
New Line.mt47054 Bus1=bus_mt115451 Bus2=bus_mt72885 phases=3 r1=0.00018400 x1=0.00042500 r0=0.00165400 x0=0.00161800 Normamps=402.90 length=44 units=m
New Line.mt18027 Bus1=bus_mt125340 Bus2=bus_mt72887 phases=3 r1=0.00018400 x1=0.00042500 r0=0.00165400 x0=0.00161800 Normamps=402.90 length=34 units=m
New Line.mt36707 Bus1=bus_mt72868 Bus2=bus_mt72889 phases=3 r1=0.00020200 x1=0.00042500 r0=0.00165400 x0=0.00161800 Normamps=368.05 length=12 units=m
New Line.mt51272 Bus1=bus_mt73192 Bus2=bus_mt73185 phases=3 r1=0.00150600 x1=0.00042500 r0=0.00165400 x0=0.00165300 Normamps=90.10 length=25 units=m
New Line.mt51271 Bus1=bus_mt73192 Bus2=bus_mt73187 phases=3 r1=0.00150600 x1=0.00042500 r0=0.00165400 x0=0.00165300 Normamps=90.10 length=17 units=m
New Line.mt37577 Bus1=bus_mt73191 Bus2=bus_mt73189 phases=3 r1=0.00150600 x1=0.00042500 r0=0.00165400 x0=0.00165300 Normamps=90.10 length=41 units=m
New Line.mt48716 Bus1=bus_mt73185 Bus2=bus_mt73191 phases=3 r1=0.00150600 x1=0.00042500 r0=0.00165400 x0=0.00165300 Normamps=90.10 length=49 units=m
New Line.mt24301 Bus1=bus_mt81047 Bus2=bus_mt73192 phases=3 r1=0.00029600 x1=0.00038200 r0=0.00044400 x0=0.00157800 Normamps=262.65 length=30 units=m
New Line.mt37709 Bus1=bus_mt84102 Bus2=bus_mt73354 phases=2 r1=0.00150600 x1=0.00042500 r0=0.00165400 x0=0.00165300 Normamps=90.10 length=23 units=m
New Line.mt48849 Bus1=bus_mt73363 Bus2=bus_mt73362 phases=2 r1=0.00150600 x1=0.00042500 r0=0.00165400 x0=0.00165300 Normamps=90.10 length=28 units=m
New Line.mt37710 Bus1=bus_mt73364 Bus2=bus_mt73363 phases=2 r1=0.00150600 x1=0.00042500 r0=0.00165400 x0=0.00165300 Normamps=90.10 length=28 units=m
New Line.mt21767 Bus1=bus_mt73365 Bus2=bus_mt73364 phases=2 r1=0.00150600 x1=0.00042500 r0=0.00165400 x0=0.00165300 Normamps=90.10 length=28 units=m
New Line.mt48848 Bus1=bus_mt73354 Bus2=bus_mt73365 phases=2 r1=0.00150600 x1=0.00042500 r0=0.00165400 x0=0.00165300 Normamps=90.10 length=23 units=m
New Line.mt20141 Bus1=bus_mt70063 Bus2=bus_mt73372 phases=2 r1=0.00150600 x1=0.00042500 r0=0.00165400 x0=0.00165300 Normamps=90.10 length=34 units=m
New Line.mt37708 Bus1=bus_mt73374 Bus2=bus_mt73373 phases=2 r1=0.00150600 x1=0.00042500 r0=0.00165400 x0=0.00165300 Normamps=90.10 length=30 units=m
New Line.mt21766 Bus1=bus_mt73375 Bus2=bus_mt73374 phases=2 r1=0.00150600 x1=0.00042500 r0=0.00165400 x0=0.00165300 Normamps=90.10 length=29 units=m
New Line.mt48847 Bus1=bus_mt73376 Bus2=bus_mt73375 phases=2 r1=0.00150600 x1=0.00042500 r0=0.00165400 x0=0.00165300 Normamps=90.10 length=27 units=m
New Line.mt20139 Bus1=bus_mt119267 Bus2=bus_mt73376 phases=2 r1=0.00150600 x1=0.00042500 r0=0.00165400 x0=0.00165300 Normamps=90.10 length=28 units=m
New Line.mt32370 Bus1=bus_mt83184 Bus2=bus_mt73778 phases=3 r1=0.00020200 x1=0.00042500 r0=0.00165400 x0=0.00161800 Normamps=368.05 length=11 units=m
New Line.mt48856 Bus1=bus_mt73856 Bus2=bus_mt73854 phases=3 r1=0.00150600 x1=0.00042500 r0=0.00165400 x0=0.00165300 Normamps=90.10 length=21 units=m
New Line.mt20148 Bus1=bus_mt73858 Bus2=bus_mt73856 phases=3 r1=0.00150600 x1=0.00042500 r0=0.00165400 x0=0.00165300 Normamps=90.10 length=43 units=m
New Line.mt20147 Bus1=bus_mt73865 Bus2=bus_mt73858 phases=3 r1=0.00150600 x1=0.00042500 r0=0.00165400 x0=0.00165300 Normamps=90.10 length=35 units=m
New Line.mt20150 Bus1=bus_mt73947 Bus2=bus_mt73860 phases=3 r1=0.00150600 x1=0.00042500 r0=0.00165400 x0=0.00165300 Normamps=90.10 length=21 units=m
New Line.mt21774 Bus1=bus_mt73854 Bus2=bus_mt73862 phases=3 r1=0.00150600 x1=0.00042500 r0=0.00165400 x0=0.00165300 Normamps=90.10 length=41 units=m
New Line.mt37715 Bus1=bus_mt73862 Bus2=bus_mt73863 phases=3 r1=0.00150600 x1=0.00042500 r0=0.00165400 x0=0.00165300 Normamps=90.10 length=37 units=m
New Line.mt37714 Bus1=bus_mt73867 Bus2=bus_mt73865 phases=3 r1=0.00150600 x1=0.00042500 r0=0.00165400 x0=0.00165300 Normamps=90.10 length=32 units=m
New Line.mt21773 Bus1=bus_mt73869 Bus2=bus_mt73867 phases=3 r1=0.00150600 x1=0.00042500 r0=0.00165400 x0=0.00165300 Normamps=90.10 length=35 units=m
New Line.mt48859 Bus1=bus_mt73871 Bus2=bus_mt73869 phases=3 r1=0.00150600 x1=0.00042500 r0=0.00165400 x0=0.00165300 Normamps=90.10 length=31 units=m
New Line.mt20151 Bus1=bus_mt73947 Bus2=bus_mt73871 phases=3 r1=0.00150600 x1=0.00042500 r0=0.00165400 x0=0.00165300 Normamps=90.10 length=16 units=m
New Line.mt48858 Bus1=bus_mt73860 Bus2=bus_mt73946 phases=3 r1=0.00150600 x1=0.00042500 r0=0.00165400 x0=0.00165300 Normamps=90.10 length=50 units=m
New Line.mt37716 Bus1=bus_mt108251 Bus2=bus_mt73947 phases=3 r1=0.00150600 x1=0.00042500 r0=0.00165400 x0=0.00165300 Normamps=90.10 length=24 units=m
New Line.mt6908 Bus1=bus_mt89824 Bus2=bus_mt73966 phases=2 r1=0.00150600 x1=0.00042500 r0=0.00165400 x0=0.00165300 Normamps=90.10 length=36 units=m
New Line.mt34928 Bus1=bus_mt113271 Bus2=bus_mt74352 phases=3 r1=0.00094400 x1=0.00042500 r0=0.00165400 x0=0.00159800 Normamps=130.05 length=10 units=m
New Line.mt37732 Bus1=bus_mt74377 Bus2=bus_mt74354 phases=3 r1=0.00150600 x1=0.00042500 r0=0.00165400 x0=0.00165300 Normamps=90.10 length=52 units=m
New Line.mt20169 Bus1=bus_mt74352 Bus2=bus_mt74355 phases=3 r1=0.00150600 x1=0.00042500 r0=0.00165400 x0=0.00165300 Normamps=90.10 length=16 units=m
New Line.mt48876 Bus1=bus_mt74352 Bus2=bus_mt74357 phases=3 r1=0.00150600 x1=0.00042500 r0=0.00165400 x0=0.00165300 Normamps=90.10 length=33 units=m
New Line.mt48875 Bus1=bus_mt74355 Bus2=bus_mt74377 phases=3 r1=0.00150600 x1=0.00042500 r0=0.00165400 x0=0.00165300 Normamps=90.10 length=24 units=m
New Line.mt45813 Bus1=bus_mt74432 Bus2=bus_mt74430 phases=3 r1=0.00150600 x1=0.00042500 r0=0.00165400 x0=0.00165300 Normamps=90.10 length=37 units=m
New Line.mt45814 Bus1=bus_mt74448 Bus2=bus_mt74432 phases=3 r1=0.00150600 x1=0.00042500 r0=0.00165400 x0=0.00165300 Normamps=90.10 length=32 units=m
New Line.mt48879 Bus1=bus_mt74448 Bus2=bus_mt74434 phases=2 r1=0.00150600 x1=0.00042500 r0=0.00165400 x0=0.00165300 Normamps=90.10 length=20 units=m
New Line.mt37739 Bus1=bus_mt74434 Bus2=bus_mt74436 phases=2 r1=0.00150600 x1=0.00042500 r0=0.00165400 x0=0.00165300 Normamps=90.10 length=23 units=m
New Line.mt20172 Bus1=bus_mt74439 Bus2=bus_mt74437 phases=2 r1=0.00150600 x1=0.00042500 r0=0.00165400 x0=0.00165300 Normamps=90.10 length=39 units=m
New Line.mt37740 Bus1=bus_mt74443 Bus2=bus_mt74439 phases=2 r1=0.00150600 x1=0.00042500 r0=0.00165400 x0=0.00165300 Normamps=90.10 length=37 units=m
New Line.mt48880 Bus1=bus_mt74436 Bus2=bus_mt74442 phases=2 r1=0.00150600 x1=0.00042500 r0=0.00165400 x0=0.00165300 Normamps=90.10 length=12 units=m
New Line.mt21807 Bus1=bus_mt74446 Bus2=bus_mt74443 phases=2 r1=0.00150600 x1=0.00042500 r0=0.00165400 x0=0.00165300 Normamps=90.10 length=32 units=m
New Line.mt21806 Bus1=bus_mt74442 Bus2=bus_mt74446 phases=2 r1=0.00150600 x1=0.00042500 r0=0.00165400 x0=0.00165300 Normamps=90.10 length=26 units=m
New Line.mt19253 Bus1=bus_mt70949 Bus2=bus_mt74448 phases=3 r1=0.00150600 x1=0.00042500 r0=0.00165400 x0=0.00165300 Normamps=90.10 length=32 units=m
New Line.mt20173 Bus1=bus_mt74437 Bus2=bus_mt74454 phases=2 r1=0.00150600 x1=0.00042500 r0=0.00165400 x0=0.00165300 Normamps=90.10 length=32 units=m
New Line.mt48878 Bus1=bus_mt74430 Bus2=bus_mt74457 phases=2 r1=0.00150600 x1=0.00042500 r0=0.00165400 x0=0.00165300 Normamps=90.10 length=26 units=m
New Line.mt48952 Bus1=bus_mt74454 Bus2=bus_mt74460 phases=2 r1=0.00150600 x1=0.00042500 r0=0.00165400 x0=0.00165300 Normamps=90.10 length=43 units=m
New Line.mt21947 Bus1=bus_mt74460 Bus2=bus_mt74462 phases=2 r1=0.00150600 x1=0.00042500 r0=0.00165400 x0=0.00165300 Normamps=90.10 length=39 units=m
New Line.mt37831 Bus1=bus_mt74462 Bus2=bus_mt74469 phases=2 r1=0.00150600 x1=0.00042500 r0=0.00165400 x0=0.00165300 Normamps=90.10 length=33 units=m
New Line.mt38067 Bus1=bus_mt76421 Bus2=bus_mt74617 phases=3 r1=0.00018500 x1=0.00026100 r0=0.00030000 x0=0.00161800 Normamps=352.75 length=21 units=m
New Line.mt45066 Bus1=bus_mt109411 Bus2=bus_mt74618 phases=3 r1=0.00060700 x1=0.00039300 r0=0.00075500 x0=0.00162000 Normamps=167.45 length=56 units=m
New Line.mt42 Bus1=bus_mt78575 Bus2=bus_mt74619 phases=3 r1=0.00176900 x1=0.00042500 r0=0.00165400 x0=0.00165300 Normamps=90.10 length=35 units=m
New Line.mt13270 Bus1=bus_mt85281 Bus2=bus_mt74620 phases=3 r1=0.00018400 x1=0.00042500 r0=0.00165400 x0=0.00161800 Normamps=402.90 length=24 units=m
New Line.mt38085 Bus1=bus_mt74622 Bus2=bus_mt74621 phases=3 r1=0.00029600 x1=0.00038200 r0=0.00044400 x0=0.00157800 Normamps=262.65 length=9 units=m
New Line.mt49204 Bus1=bus_mt112964 Bus2=bus_mt74622 phases=3 r1=0.00029600 x1=0.00038200 r0=0.00044400 x0=0.00157800 Normamps=262.65 length=37 units=m
New Line.mt12548 Bus1=bus_mt69994 Bus2=bus_mt74623 phases=3 r1=0.00030600 x1=0.00042500 r0=0.00165400 x0=0.00159800 Normamps=295.80 length=31 units=m
New Line.mt37841 Bus1=bus_mt89849 Bus2=bus_mt74715 phases=3 r1=0.00150600 x1=0.00042500 r0=0.00165400 x0=0.00165300 Normamps=90.10 length=44 units=m
New Line.mt49044 Bus1=bus_mt75510 Bus2=bus_mt75508 phases=3 r1=0.00176900 x1=0.00042500 r0=0.00165400 x0=0.00165300 Normamps=90.10 length=31 units=m
New Line.mt37912 Bus1=bus_mt75512 Bus2=bus_mt75510 phases=3 r1=0.00176900 x1=0.00042500 r0=0.00165400 x0=0.00165300 Normamps=90.10 length=6 units=m
New Line.mt22059 Bus1=bus_mt75514 Bus2=bus_mt75512 phases=3 r1=0.00176900 x1=0.00042500 r0=0.00165400 x0=0.00165300 Normamps=90.10 length=24 units=m
New Line.mt49043 Bus1=bus_mt75516 Bus2=bus_mt75514 phases=3 r1=0.00176900 x1=0.00042500 r0=0.00165400 x0=0.00165300 Normamps=90.10 length=31 units=m
New Line.mt20354 Bus1=bus_mt75518 Bus2=bus_mt75516 phases=3 r1=0.00176900 x1=0.00042500 r0=0.00165400 x0=0.00165300 Normamps=90.10 length=23 units=m
New Line.mt58940 Bus1=bus_mt96822 Bus2=bus_mt75518 phases=3 r1=0.00150600 x1=0.00042500 r0=0.00165400 x0=0.00165300 Normamps=90.10 length=18 units=m
New Line.mt49045 Bus1=bus_mt75569 Bus2=bus_mt75567 phases=3 r1=0.00176900 x1=0.00042500 r0=0.00165400 x0=0.00165300 Normamps=90.10 length=31 units=m
New Line.mt20355 Bus1=bus_mt75571 Bus2=bus_mt75569 phases=3 r1=0.00176900 x1=0.00042500 r0=0.00165400 x0=0.00165300 Normamps=90.10 length=31 units=m
New Line.mt37913 Bus1=bus_mt75508 Bus2=bus_mt75571 phases=3 r1=0.00176900 x1=0.00042500 r0=0.00165400 x0=0.00165300 Normamps=90.10 length=31 units=m
New Line.mt22400 Bus1=bus_mt77569 Bus2=bus_mt76419 phases=3 r1=0.00018500 x1=0.00026100 r0=0.00030000 x0=0.00161800 Normamps=352.75 length=25 units=m
New Line.mt49188 Bus1=bus_mt113502 Bus2=bus_mt76421 phases=3 r1=0.00018500 x1=0.00026100 r0=0.00030000 x0=0.00161800 Normamps=352.75 length=20 units=m
New Line.mt22231 Bus1=bus_mt108563 Bus2=bus_mt76422 phases=3 r1=0.00018500 x1=0.00026100 r0=0.00030000 x0=0.00161800 Normamps=352.75 length=10 units=m
New Line.mt38071 Bus1=bus_mt76429 Bus2=bus_mt76427 phases=3 r1=0.00018500 x1=0.00026100 r0=0.00030000 x0=0.00161800 Normamps=352.75 length=31 units=m
New Line.mt49192 Bus1=bus_mt76431 Bus2=bus_mt76429 phases=3 r1=0.00018500 x1=0.00026100 r0=0.00030000 x0=0.00161800 Normamps=352.75 length=41 units=m
New Line.mt38070 Bus1=bus_mt76435 Bus2=bus_mt76431 phases=3 r1=0.00018500 x1=0.00026100 r0=0.00030000 x0=0.00161800 Normamps=352.75 length=36 units=m
New Line.mt20564 Bus1=bus_mt76433 Bus2=bus_mt76432 phases=3 r1=0.00018500 x1=0.00026100 r0=0.00030000 x0=0.00161800 Normamps=352.75 length=27 units=m
New Line.mt20516 Bus1=bus_mt76436 Bus2=bus_mt76433 phases=3 r1=0.00018500 x1=0.00026100 r0=0.00030000 x0=0.00161800 Normamps=352.75 length=27 units=m
New Line.mt49191 Bus1=bus_mt76432 Bus2=bus_mt76435 phases=3 r1=0.00018500 x1=0.00026100 r0=0.00030000 x0=0.00161800 Normamps=352.75 length=21 units=m
New Line.mt38025 Bus1=bus_mt76437 Bus2=bus_mt76436 phases=3 r1=0.00018500 x1=0.00026100 r0=0.00030000 x0=0.00161800 Normamps=352.75 length=43 units=m
New Line.mt49190 Bus1=bus_mt76438 Bus2=bus_mt76437 phases=3 r1=0.00018500 x1=0.00026100 r0=0.00030000 x0=0.00161800 Normamps=352.75 length=19 units=m
New Line.mt20515 Bus1=bus_mt76439 Bus2=bus_mt76438 phases=3 r1=0.00018500 x1=0.00026100 r0=0.00030000 x0=0.00161800 Normamps=352.75 length=20 units=m
New Line.mt38069 Bus1=bus_mt72160 Bus2=bus_mt76439 phases=3 r1=0.00018500 x1=0.00026100 r0=0.00030000 x0=0.00161800 Normamps=352.75 length=21 units=m
New Line.mt49189 Bus1=bus_mt86438 Bus2=bus_mt76441 phases=3 r1=0.00018500 x1=0.00026100 r0=0.00030000 x0=0.00161800 Normamps=352.75 length=17 units=m
New Line.mt22867 Bus1=bus_mt85207 Bus2=bus_mt76453 phases=3 r1=0.00176900 x1=0.00042500 r0=0.00165400 x0=0.00165300 Normamps=90.10 length=14 units=m
New Line.mt22275 Bus1=bus_mt85211 Bus2=bus_mt76550 phases=3 r1=0.00030200 x1=0.00037100 r0=0.00045000 x0=0.00159800 Normamps=261.80 length=9 units=m
New Line.mt20530 Bus1=bus_mt76602 Bus2=bus_mt76601 phases=3 r1=0.00150600 x1=0.00042500 r0=0.00165400 x0=0.00165300 Normamps=90.10 length=20 units=m
New Line.mt20529 Bus1=bus_mt74621 Bus2=bus_mt76602 phases=3 r1=0.00060700 x1=0.00039300 r0=0.00075500 x0=0.00162000 Normamps=167.45 length=19 units=m
New Line.mt49205 Bus1=bus_mt76604 Bus2=bus_mt76603 phases=3 r1=0.00150600 x1=0.00042500 r0=0.00165400 x0=0.00165300 Normamps=90.10 length=20 units=m
New Line.mt38086 Bus1=bus_mt74622 Bus2=bus_mt76604 phases=3 r1=0.00060700 x1=0.00039300 r0=0.00075500 x0=0.00162000 Normamps=167.45 length=19 units=m
New Line.mt20533 Bus1=bus_mt81208 Bus2=bus_mt76605 phases=3 r1=0.00018500 x1=0.00026100 r0=0.00030000 x0=0.00161800 Normamps=352.75 length=16 units=m
New Line.mt38127 Bus1=bus_mt76800 Bus2=bus_mt76784 phases=3 r1=0.00029600 x1=0.00038200 r0=0.00044400 x0=0.00157800 Normamps=262.65 length=35 units=m
New Line.mt49244 Bus1=bus_mt76784 Bus2=bus_mt76786 phases=3 r1=0.00029600 x1=0.00038200 r0=0.00044400 x0=0.00157800 Normamps=262.65 length=26 units=m
New Line.mt22299 Bus1=bus_mt76786 Bus2=bus_mt76788 phases=3 r1=0.00029600 x1=0.00038200 r0=0.00044400 x0=0.00157800 Normamps=262.65 length=37 units=m
New Line.mt38125 Bus1=bus_mt76788 Bus2=bus_mt76790 phases=3 r1=0.00029600 x1=0.00038200 r0=0.00044400 x0=0.00157800 Normamps=262.65 length=35 units=m
New Line.mt38126 Bus1=bus_mt111625 Bus2=bus_mt76797 phases=3 r1=0.00029600 x1=0.00038200 r0=0.00044400 x0=0.00157800 Normamps=262.65 length=26 units=m
New Line.mt49245 Bus1=bus_mt76797 Bus2=bus_mt76798 phases=3 r1=0.00029600 x1=0.00038200 r0=0.00044400 x0=0.00157800 Normamps=262.65 length=27 units=m
New Line.mt22300 Bus1=bus_mt76798 Bus2=bus_mt76800 phases=3 r1=0.00029600 x1=0.00038200 r0=0.00044400 x0=0.00157800 Normamps=262.65 length=35 units=m
New Line.mt49276 Bus1=bus_mt86941 Bus2=bus_mt77020 phases=3 r1=0.00018500 x1=0.00026100 r0=0.00030000 x0=0.00161800 Normamps=352.75 length=21 units=m
New Line.mt49277 Bus1=bus_mt74618 Bus2=bus_mt77021 phases=3 r1=0.00150600 x1=0.00042500 r0=0.00165400 x0=0.00165300 Normamps=90.10 length=32 units=m
New Line.mt47161 Bus1=bus_mt85280 Bus2=bus_mt77236 phases=3 r1=0.00018400 x1=0.00042500 r0=0.00165400 x0=0.00161800 Normamps=402.90 length=30 units=m
New Line.mt32102 Bus1=bus_mt72171 Bus2=bus_mt77569 phases=3 r1=0.00018500 x1=0.00026100 r0=0.00030000 x0=0.00161800 Normamps=352.75 length=11 units=m
New Line.mt49362 Bus1=bus_mt77635 Bus2=bus_mt77634 phases=3 r1=0.00150600 x1=0.00042500 r0=0.00165400 x0=0.00165300 Normamps=90.10 length=21 units=m
New Line.mt38241 Bus1=bus_mt77636 Bus2=bus_mt77635 phases=3 r1=0.00150600 x1=0.00042500 r0=0.00165400 x0=0.00165300 Normamps=90.10 length=39 units=m
New Line.mt47150 Bus1=bus_mt85282 Bus2=bus_mt77636 phases=3 r1=0.00176900 x1=0.00042500 r0=0.00165400 x0=0.00165300 Normamps=90.10 length=14 units=m
New Line.mt38251 Bus1=bus_mt77776 Bus2=bus_mt77774 phases=3 r1=0.00176900 x1=0.00042500 r0=0.00165400 x0=0.00165300 Normamps=90.10 length=27 units=m
New Line.mt49370 Bus1=bus_mt77778 Bus2=bus_mt77776 phases=3 r1=0.00176900 x1=0.00042500 r0=0.00165400 x0=0.00165300 Normamps=90.10 length=25 units=m
New Line.mt38250 Bus1=bus_mt77809 Bus2=bus_mt77778 phases=3 r1=0.00176900 x1=0.00042500 r0=0.00165400 x0=0.00165300 Normamps=90.10 length=19 units=m
New Line.mt49372 Bus1=bus_mt85442 Bus2=bus_mt77803 phases=3 r1=0.00176900 x1=0.00042500 r0=0.00165400 x0=0.00165300 Normamps=90.10 length=21 units=m
New Line.mt22418 Bus1=bus_mt77803 Bus2=bus_mt77805 phases=3 r1=0.00176900 x1=0.00042500 r0=0.00165400 x0=0.00165300 Normamps=90.10 length=19 units=m
New Line.mt22417 Bus1=bus_mt77805 Bus2=bus_mt77807 phases=3 r1=0.00176900 x1=0.00042500 r0=0.00165400 x0=0.00165300 Normamps=90.10 length=18 units=m
New Line.mt49371 Bus1=bus_mt85437 Bus2=bus_mt77809 phases=3 r1=0.00176900 x1=0.00042500 r0=0.00165400 x0=0.00165300 Normamps=90.10 length=22 units=m
New Line.mt24350 Bus1=bus_mt85146 Bus2=bus_mt78056 phases=3 r1=0.00150600 x1=0.00042500 r0=0.00165400 x0=0.00165300 Normamps=90.10 length=30 units=m
New Line.mt22474 Bus1=bus_mt78072 Bus2=bus_mt78070 phases=3 r1=0.00176900 x1=0.00042500 r0=0.00165400 x0=0.00165300 Normamps=90.10 length=18 units=m
New Line.mt22473 Bus1=bus_mt78074 Bus2=bus_mt78072 phases=3 r1=0.00176900 x1=0.00042500 r0=0.00165400 x0=0.00165300 Normamps=90.10 length=18 units=m
New Line.mt22475 Bus1=bus_mt78056 Bus2=bus_mt78074 phases=3 r1=0.00176900 x1=0.00042500 r0=0.00165400 x0=0.00165300 Normamps=90.10 length=21 units=m
New Line.mt34607 Bus1=bus_mt74619 Bus2=bus_mt78569 phases=3 r1=0.00176900 x1=0.00042500 r0=0.00165400 x0=0.00165300 Normamps=90.10 length=24 units=m
New Line.mt23512 Bus1=bus_mt78573 Bus2=bus_mt78571 phases=3 r1=0.00176900 x1=0.00042500 r0=0.00165400 x0=0.00165300 Normamps=90.10 length=36 units=m
New Line.mt50467 Bus1=bus_mt74619 Bus2=bus_mt78573 phases=3 r1=0.00176900 x1=0.00042500 r0=0.00165400 x0=0.00165300 Normamps=90.10 length=36 units=m
New Line.mt11021 Bus1=bus_mt116600 Bus2=bus_mt78575 phases=3 r1=0.00150600 x1=0.00042500 r0=0.00165400 x0=0.00165300 Normamps=402.90 length=9 units=m
New Line.mt11699 Bus1=bus_mt108335 Bus2=bus_mt78619 phases=3 r1=0.00150600 x1=0.00042500 r0=0.00165400 x0=0.00165300 Normamps=90.10 length=23 units=m
New Line.mt12465 Bus1=bus_mt90715 Bus2=bus_mt79014 phases=3 r1=0.00060700 x1=0.00039300 r0=0.00075500 x0=0.00162000 Normamps=167.45 length=38 units=m
New Line.mt342 Bus1=bus_mt79653 Bus2=bus_mt79408 phases=3 r1=0.00150600 x1=0.00042500 r0=0.00165400 x0=0.00165300 Normamps=90.10 length=23 units=m
New Line.mt34610 Bus1=bus_mt72557 Bus2=bus_mt79567 phases=2 r1=0.00150600 x1=0.00042500 r0=0.00165400 x0=0.00165300 Normamps=90.10 length=17 units=m
New Line.mt50724 Bus1=bus_mt72557 Bus2=bus_mt79568 phases=2 r1=0.00150600 x1=0.00042500 r0=0.00165400 x0=0.00165300 Normamps=90.10 length=9 units=m
New Line.mt23326 Bus1=bus_mt86013 Bus2=bus_mt79629 phases=3 r1=0.00150600 x1=0.00042500 r0=0.00165400 x0=0.00165300 Normamps=90.10 length=24 units=m
New Line.mt23778 Bus1=bus_mt86061 Bus2=bus_mt79653 phases=3 r1=0.00150600 x1=0.00042500 r0=0.00165400 x0=0.00165300 Normamps=90.10 length=17 units=m
New Line.mt50737 Bus1=bus_mt79674 Bus2=bus_mt79672 phases=3 r1=0.00176900 x1=0.00042500 r0=0.00165400 x0=0.00165300 Normamps=90.10 length=27 units=m