New Load.load_3462 bus1=bus_bt70007 phases=3 kV=0.400 kW=4.000 pf=0.95
New Load.load_903 bus1=bus_bt70007 phases=3 kV=0.400 kW=4.000 pf=0.95
New Load.load_1755 bus1=bus_bt70064 phases=3 kV=0.400 kW=40.000 pf=0.95
New Load.load_2777 bus1=bus_bt71180 phases=3 kV=0.400 kW=240.000 pf=0.95
New Load.load_947 bus1=bus_bt71591 phases=3 kV=0.400 kW=60.000 pf=0.95
New Load.load_1260 bus1=bus_bt72869 phases=3 kV=0.400 kW=4.000 pf=0.95
New Load.load_1655 bus1=bus_bt72872 phases=3 kV=0.400 kW=60.000 pf=0.95
New Load.load_2510 bus1=bus_bt72886 phases=3 kV=0.400 kW=120.000 pf=0.95
New Load.load_3443 bus1=bus_bt73186 phases=3 kV=0.400 kW=120.000 pf=0.95
New Load.load_2606 bus1=bus_bt73357 phases=3 kV=0.400 kW=40.000 pf=0.95
New Load.load_3437 bus1=bus_bt73857 phases=3 kV=0.400 kW=60.000 pf=0.95
New Load.load_1780 bus1=bus_bt74353 phases=3 kV=0.400 kW=60.000 pf=0.95
New Load.load_558 bus1=bus_bt74356 phases=3 kV=0.400 kW=36.000 pf=0.95
New Load.load_1761 bus1=bus_bt74431 phases=3 kV=0.400 kW=36.000 pf=0.95
New Load.load_3445 bus1=bus_bt74438 phases=3 kV=0.400 kW=40.000 pf=0.95
New Load.load_1769 bus1=bus_bt74470 phases=3 kV=0.400 kW=40.000 pf=0.95
New Load.load_545 bus1=bus_bt75513 phases=3 kV=0.400 kW=80.000 pf=0.95
New Load.load_1879 bus1=bus_bt76430 phases=3 kV=0.400 kW=60.000 pf=0.95
New Load.load_565 bus1=bus_bt76452 phases=3 kV=0.400 kW=80.000 pf=0.95
New Load.load_3405 bus1=bus_bt76549 phases=3 kV=0.400 kW=4.000 pf=0.95
New Load.load_3501 bus1=bus_bt76785 phases=3 kV=0.400 kW=4.000 pf=0.95
New Load.load_681 bus1=bus_bt76787 phases=3 kV=0.400 kW=60.000 pf=0.95
New Load.load_1776 bus1=bus_bt77775 phases=3 kV=0.400 kW=60.000 pf=0.95
New Load.load_2833 bus1=bus_bt77808 phases=3 kV=0.400 kW=60.000 pf=0.95
New Load.load_548 bus1=bus_bt78071 phases=3 kV=0.400 kW=36.000 pf=0.95
New Load.load_1877 bus1=bus_bt78572 phases=3 kV=0.400 kW=160.000 pf=0.95
New Load.load_553 bus1=bus_bt79654 phases=3 kV=0.400 kW=36.000 pf=0.95
New Load.load_552 bus1=bus_bt79675 phases=3 kV=0.400 kW=60.000 pf=0.95
New Load.load_2628 bus1=bus_bt81054 phases=3 kV=0.400 kW=60.000 pf=0.95
New Load.load_1052 bus1=bus_bt81056 phases=3 kV=0.400 kW=4.000 pf=0.95
New Load.load_685 bus1=bus_bt82326 phases=3 kV=0.400 kW=60.000 pf=0.95
New Load.load_1914 bus1=bus_bt82336 phases=3 kV=0.400 kW=60.000 pf=0.95
New Load.load_2623 bus1=bus_bt82860 phases=3 kV=0.400 kW=60.000 pf=0.95
New Load.load_2631 bus1=bus_bt83515 phases=3 kV=0.400 kW=60.000 pf=0.95
New Load.load_3384 bus1=bus_bt84888 phases=3 kV=0.400 kW=160.000 pf=0.95
New Load.load_1019 bus1=bus_bt85100 phases=3 kV=0.400 kW=4.000 pf=0.95
New Load.load_510 bus1=bus_bt85136 phases=3 kV=0.400 kW=60.000 pf=0.95
New Load.load_1792 bus1=bus_bt85268 phases=3 kV=0.400 kW=36.000 pf=0.95
New Load.load_455 bus1=bus_bt85423 phases=3 kV=0.400 kW=36.000 pf=0.95
New Load.load_3625 bus1=bus_bt85440 phases=3 kV=0.400 kW=4.000 pf=0.95
New Load.load_2735 bus1=bus_bt86251 phases=3 kV=0.400 kW=160.000 pf=0.95
New Load.load_2737 bus1=bus_bt86580 phases=3 kV=0.400 kW=240.000 pf=0.95
New Load.load_408 bus1=bus_bt86581 phases=3 kV=0.400 kW=240.000 pf=0.95
New Load.load_3339 bus1=bus_bt87090 phases=3 kV=0.400 kW=160.000 pf=0.95
New Load.load_3479 bus1=bus_bt87124 phases=3 kV=0.400 kW=36.000 pf=0.95
New Load.load_1743 bus1=bus_bt88426 phases=3 kV=0.400 kW=60.000 pf=0.95
New Load.load_3478 bus1=bus_bt88428 phases=3 kV=0.400 kW=16.000 pf=0.95
New Load.load_524 bus1=bus_bt88494 phases=3 kV=0.400 kW=24.000 pf=0.95
New Load.load_1701 bus1=bus_bt88695 phases=3 kV=0.400 kW=80.000 pf=0.95
New Load.load_3428 bus1=bus_bt89068 phases=3 kV=0.400 kW=60.000 pf=0.95
New Load.load_2603 bus1=bus_bt89079 phases=3 kV=0.400 kW=24.000 pf=0.95
New Load.load_539 bus1=bus_bt89083 phases=3 kV=0.400 kW=24.000 pf=0.95
New Load.load_1747 bus1=bus_bt89092 phases=3 kV=0.400 kW=40.000 pf=0.95
New Load.load_1752 bus1=bus_bt89144 phases=3 kV=0.400 kW=60.000 pf=0.95
New Load.load_3416 bus1=bus_bt89276 phases=3 kV=0.400 kW=24.000 pf=0.95
New Load.load_3415 bus1=bus_bt89279 phases=3 kV=0.400 kW=16.000 pf=0.95
New Load.load_1745 bus1=bus_bt89280 phases=3 kV=0.400 kW=24.000 pf=0.95
New Load.load_560 bus1=bus_bt89285 phases=3 kV=0.400 kW=24.000 pf=0.95
New Load.load_519 bus1=bus_bt89286 phases=3 kV=0.400 kW=16.000 pf=0.95
New Load.load_1744 bus1=bus_bt89287 phases=3 kV=0.400 kW=24.000 pf=0.95
New Load.load_3477 bus1=bus_bt89288 phases=3 kV=0.400 kW=24.000 pf=0.95
New Load.load_2598 bus1=bus_bt89289 phases=3 kV=0.400 kW=16.000 pf=0.95
New Load.load_2604 bus1=bus_bt89611 phases=3 kV=0.400 kW=80.000 pf=0.95
New Load.load_525 bus1=bus_bt89677 phases=3 kV=0.400 kW=80.000 pf=0.95
New Load.load_2620 bus1=bus_bt89848 phases=3 kV=0.400 kW=12.000 pf=0.95
New Load.load_1025 bus1=bus_bt89881 phases=3 kV=0.400 kW=4.000 pf=0.95
New Load.load_1753 bus1=bus_bt89889 phases=3 kV=0.400 kW=60.000 pf=0.95
New Load.load_3502 bus1=bus_bt93229 phases=3 kV=0.400 kW=60.000 pf=0.95
New Load.load_3516 bus1=bus_bt93683 phases=3 kV=0.400 kW=4.000 pf=0.95
New Load.load_720 bus1=bus_bt93693 phases=3 kV=0.400 kW=60.000 pf=0.95
New Load.load_1735 bus1=bus_bt94816 phases=3 kV=0.400 kW=60.000 pf=0.95
New Load.load_1898 bus1=bus_bt94826 phases=3 kV=0.400 kW=80.000 pf=0.95
New Load.load_2616 bus1=bus_bt94867 phases=3 kV=0.400 kW=60.000 pf=0.95
New Load.load_572 bus1=bus_bt96831 phases=3 kV=0.400 kW=80.000 pf=0.95
New Load.load_3513 bus1=bus_bt97011 phases=3 kV=0.400 kW=80.000 pf=0.95
New Load.load_2007 bus1=bus_bt97019 phases=3 kV=0.400 kW=8.000 pf=0.95
New Load.load_1210 bus1=bus_bt98690 phases=3 kV=0.400 kW=4.000 pf=0.95
New Load.load_886 bus1=bus_bt99858 phases=3 kV=0.400 kW=4.000 pf=0.95
New Load.load_504 bus1=bus_bt100459 phases=3 kV=0.400 kW=20.000 pf=0.95
New Load.load_1258 bus1=bus_bt100626 phases=3 kV=0.400 kW=160.000 pf=0.95
New Load.load_1806 bus1=bus_bt101250 phases=3 kV=0.400 kW=80.000 pf=0.95
New Load.load_1634 bus1=bus_bt102019 phases=3 kV=0.400 kW=60.000 pf=0.95
New Load.load_534 bus1=bus_bt102295 phases=3 kV=0.400 kW=36.000 pf=0.95
New Load.load_1055 bus1=bus_bt102305 phases=3 kV=0.400 kW=60.000 pf=0.95
New Load.load_1038 bus1=bus_bt102543 phases=3 kV=0.400 kW=240.000 pf=0.95
New Load.load_414 bus1=bus_bt103286 phases=3 kV=0.400 kW=120.000 pf=0.95
New Load.load_3453 bus1=bus_bt104134 phases=3 kV=0.400 kW=36.000 pf=0.95
New Load.load_3343 bus1=bus_bt104638 phases=3 kV=0.400 kW=60.000 pf=0.95
New Load.load_662 bus1=bus_bt105884 phases=3 kV=0.400 kW=60.000 pf=0.95
New Load.load_1033 bus1=bus_bt105884 phases=3 kV=0.400 kW=240.000 pf=0.95
New Load.load_3383 bus1=bus_bt106920 phases=3 kV=0.400 kW=60.000 pf=0.95
New Load.load_2740 bus1=bus_bt106930 phases=3 kV=0.400 kW=60.000 pf=0.95
New Load.load_611 bus1=bus_bt107018 phases=3 kV=0.400 kW=60.000 pf=0.95
New Load.load_472 bus1=bus_bt107229 phases=3 kV=0.400 kW=60.000 pf=0.95
New Load.load_2738 bus1=bus_bt108080 phases=3 kV=0.400 kW=80.000 pf=0.95
New Load.load_2513 bus1=bus_bt108245 phases=3 kV=0.400 kW=60.000 pf=0.95
New Load.load_508 bus1=bus_bt108798 phases=3 kV=0.400 kW=60.000 pf=0.95
New Load.load_1799 bus1=bus_bt110373 phases=3 kV=0.400 kW=60.000 pf=0.95
New Load.load_871 bus1=bus_bt111828 phases=3 kV=0.400 kW=4.000 pf=0.95
New Load.load_648 bus1=bus_bt116370 phases=3 kV=0.400 kW=36.000 pf=0.95
New Load.load_1885 bus1=bus_bt116798 phases=3 kV=0.400 kW=36.000 pf=0.95
New Load.load_3655 bus1=bus_bt116806 phases=3 kV=0.400 kW=36.000 pf=0.95
New Load.load_661 bus1=bus_bt116810 phases=3 kV=0.400 kW=60.000 pf=0.95
New Load.load_2707 bus1=bus_bt117051 phases=3 kV=0.400 kW=160.000 pf=0.95
New Load.load_2728 bus1=bus_bt117388 phases=3 kV=0.400 kW=80.000 pf=0.95
New Load.load_898 bus1=bus_bt117390 phases=3 kV=0.400 kW=4.000 pf=0.95
New Load.load_3703 bus1=bus_bt117418 phases=3 kV=0.400 kW=80.000 pf=0.95
New Load.load_3684 bus1=bus_bt117624 phases=3 kV=0.400 kW=36.000 pf=0.95
New Load.load_2719 bus1=bus_bt117636 phases=3 kV=0.400 kW=80.000 pf=0.95
New Load.load_680 bus1=bus_bt117644 phases=3 kV=0.400 kW=80.000 pf=0.95
New Load.load_2718 bus1=bus_bt117656 phases=3 kV=0.400 kW=60.000 pf=0.95
New Load.load_674 bus1=bus_bt117840 phases=3 kV=0.400 kW=80.000 pf=0.95
New Load.load_675 bus1=bus_bt117840 phases=3 kV=0.400 kW=80.000 pf=0.95
New Load.load_1904 bus1=bus_bt117841 phases=3 kV=0.400 kW=80.000 pf=0.95
New Load.load_676 bus1=bus_bt117865 phases=3 kV=0.400 kW=160.000 pf=0.95
New Load.load_1905 bus1=bus_bt117867 phases=3 kV=0.400 kW=160.000 pf=0.95
New Load.load_2760 bus1=bus_bt119796 phases=3 kV=0.400 kW=12.000 pf=0.95
New Load.load_1652 bus1=bus_bt119798 phases=3 kV=0.400 kW=24.000 pf=0.95
New Load.load_836 bus1=bus_bt119892 phases=3 kV=0.400 kW=12.000 pf=0.95
New Load.load_1686 bus1=bus_bt120498 phases=3 kV=0.400 kW=20.000 pf=0.95
New Load.load_1783 bus1=bus_bt121044 phases=3 kV=0.400 kW=80.000 pf=0.95
New Load.load_3382 bus1=bus_bt121390 phases=3 kV=0.400 kW=60.000 pf=0.95
New Load.load_2556 bus1=bus_bt121394 phases=3 kV=0.400 kW=36.000 pf=0.95
New Load.load_3337 bus1=bus_bt121680 phases=3 kV=0.400 kW=12.000 pf=0.95
New Load.load_523 bus1=bus_bt122313 phases=3 kV=0.400 kW=60.000 pf=0.95
New Load.load_2511 bus1=bus_bt122452 phases=3 kV=0.400 kW=80.000 pf=0.95
New Load.load_1653 bus1=bus_bt124229 phases=3 kV=0.400 kW=8.000 pf=0.95
New Load.load_2708 bus1=bus_bt126432 phases=3 kV=0.400 kW=160.000 pf=0.95
New Load.load_3523 bus1=bus_bt128284 phases=3 kV=0.400 kW=36.000 pf=0.95
New Load.load_1662 bus1=bus_bt128322 phases=3 kV=0.400 kW=24.000 pf=0.95
New Load.load_1659 bus1=bus_bt128733 phases=3 kV=0.400 kW=160.000 pf=0.95
New Load.load_509 bus1=bus_bt128954 phases=3 kV=0.400 kW=20.000 pf=0.95
New Load.load_507 bus1=bus_bt129807 phases=3 kV=0.400 kW=60.000 pf=0.95
New Load.load_2489 bus1=bus_bt130901 phases=3 kV=0.400 kW=120.000 pf=0.95
New Load.load_1697 bus1=bus_bt131118 phases=3 kV=0.400 kW=80.000 pf=0.95
New Load.load_1635 bus1=bus_bt131306 phases=3 kV=0.400 kW=160.000 pf=0.95
New Load.load_2635 bus1=bus_bt131399 phases=3 kV=0.400 kW=240.000 pf=0.95
New Load.load_575 bus1=bus_bt131403 phases=3 kV=0.400 kW=160.000 pf=0.95
New Load.load_1654 bus1=bus_bt131483 phases=3 kV=0.400 kW=60.000 pf=0.95
New Load.load_3634 bus1=bus_bt131535 phases=3 kV=0.400 kW=60.000 pf=0.95
New Load.load_1149 bus1=bus_bt131563 phases=3 kV=0.400 kW=4.000 pf=0.95
New Load.load_1851 bus1=bus_bt131642 phases=3 kV=0.400 kW=60.000 pf=0.95
New Load.load_1853 bus1=bus_bt131650 phases=3 kV=0.400 kW=60.000 pf=0.95
New Load.load_1857 bus1=bus_bt131725 phases=3 kV=0.400 kW=60.000 pf=0.95
New Load.load_630 bus1=bus_bt132375 phases=3 kV=0.400 kW=120.000 pf=0.95
New Load.load_1740 bus1=bus_bt132431 phases=3 kV=0.400 kW=60.000 pf=0.95
