New Line.679110200 Bus1=BT4740881 Bus2=BT4907986 phases=3 r1=0.00032182 x1=7.3636e-05 r0=0.0012818 x0=0.00012545 Normamps=245 length=50.0 units=m
New Line.257455800 Bus1=BT3373090 Bus2=BT3373084 phases=3 r1=0.00032182 x1=7.3636e-05 r0=0.0012818 x0=0.00012545 Normamps=245 length=22.0 units=m
New Line.259120000 Bus1=BT8647196 Bus2=BT18317891 phases=3 r1=0.00032182 x1=7.3636e-05 r0=0.0012818 x0=0.00012545 Normamps=245 length=18.0 units=m
New Line.259120600 Bus1=BT18317891 Bus2=BT8647124 phases=3 r1=0.00032182 x1=7.3636e-05 r0=0.0012818 x0=0.00012545 Normamps=245 length=36.0 units=m
New Line.259121200 Bus1=BT8647124 Bus2=BT8647118 phases=3 r1=0.00032182 x1=7.3636e-05 r0=0.0012818 x0=0.00012545 Normamps=245 length=34.0 units=m
New Line.558484300 Bus1=BT9923532 Bus2=BT4888624 phases=3 r1=0.00032182 x1=7.3636e-05 r0=0.0012818 x0=0.00012545 Normamps=245 length=84.0 units=m
New Line.558484200 Bus1=BT9923532 Bus2=BT4888630 phases=3 r1=0.00032182 x1=7.3636e-05 r0=0.0012818 x0=0.00012545 Normamps=245 length=8.0 units=m
New Line.540403100 Bus1=BT9878187 Bus2=BT4115434 phases=3 r1=0.00032182 x1=7.3636e-05 r0=0.0012818 x0=0.00012545 Normamps=245 length=8.0 units=m
New Line.540403000 Bus1=BT9878187 Bus2=BT3677118 phases=3 r1=0.00032182 x1=7.3636e-05 r0=0.0012818 x0=0.00012545 Normamps=245 length=14.0 units=m
New Line.256033700 Bus1=BT3298764 Bus2=BT3392038 phases=3 r1=0.00032182 x1=7.3636e-05 r0=0.0012818 x0=0.00012545 Normamps=245 length=34.0 units=m
New Line.256034300 Bus1=BT3402608 Bus2=BT3298764 phases=3 r1=0.00032182 x1=7.3636e-05 r0=0.0012818 x0=0.00012545 Normamps=245 length=44.0 units=m
New Line.256034900 Bus1=BT3491491 Bus2=BT3402608 phases=3 r1=0.00032182 x1=7.3636e-05 r0=0.0012818 x0=0.00012545 Normamps=245 length=48.0 units=m
New Line.258788300 Bus1=BT3656953 Bus2=BT3475311 phases=3 r1=0.00032182 x1=7.3636e-05 r0=0.0012818 x0=0.00012545 Normamps=245 length=43.0 units=m
New Line.258788100 Bus1=BT4239412 Bus2=BT3656953 phases=3 r1=0.00032182 x1=7.3636e-05 r0=0.0012818 x0=0.00012545 Normamps=245 length=41.0 units=m
New Line.256035500 Bus1=BT9101152 Bus2=BT3491491 phases=3 r1=0.00032182 x1=7.3636e-05 r0=0.0012818 x0=0.00012545 Normamps=245 length=22.0 units=m
New Line.256009300 Bus1=BT3030685 Bus2=BT3637334 phases=3 r1=0.00032182 x1=7.3636e-05 r0=0.0012818 x0=0.00012545 Normamps=245 length=15.0 units=m
New Line.256009900 Bus1=BT3637334 Bus2=BT3637328 phases=3 r1=0.00032182 x1=7.3636e-05 r0=0.0012818 x0=0.00012545 Normamps=245 length=30.0 units=m
New Line.254572100 Bus1=BT3138351 Bus2=BT3138347 phases=3 r1=0.00032182 x1=7.3636e-05 r0=0.0012818 x0=0.00012545 Normamps=245 length=26.0 units=m
New Line.256010500 Bus1=BT3637328 Bus2=BT3567635 phases=3 r1=0.00032182 x1=7.3636e-05 r0=0.0012818 x0=0.00012545 Normamps=245 length=29.0 units=m
New Line.256012900 Bus1=BT14477288 Bus2=BT14456679 phases=3 r1=0.00032182 x1=7.3636e-05 r0=0.0012818 x0=0.00012545 Normamps=245 length=17.0 units=m
New Line.256024900 Bus1=BT3431860 Bus2=BT3412164 phases=3 r1=0.00032182 x1=7.3636e-05 r0=0.0012818 x0=0.00012545 Normamps=245 length=43.0 units=m
New Line.258792100 Bus1=BT4429457 Bus2=BT34515735 phases=3 r1=0.00032182 x1=7.3636e-05 r0=0.0012818 x0=0.00012545 Normamps=245 length=42.0 units=m
New Line.258795500 Bus1=BT8279675 Bus2=BT8279681 phases=3 r1=0.00032182 x1=7.3636e-05 r0=0.0012818 x0=0.00012545 Normamps=245 length=34.0 units=m
New Line.259119400 Bus1=BT3502406 Bus2=BT3585313 phases=3 r1=0.00032182 x1=7.3636e-05 r0=0.0012818 x0=0.00012545 Normamps=245 length=33.0 units=m
New Line.258787100 Bus1=BT4239414 Bus2=BT100229697 phases=3 r1=0.00032182 x1=7.3636e-05 r0=0.0012818 x0=0.00012545 Normamps=245 length=41.0 units=m
New Line.258786700 Bus1=BT100229697 Bus2=BT5005839 phases=3 r1=0.00032182 x1=7.3636e-05 r0=0.0012818 x0=0.00012545 Normamps=245 length=20.0 units=m
New Line.258785900 Bus1=BT3475311 Bus2=BT3475315 phases=3 r1=0.00032182 x1=7.3636e-05 r0=0.0012818 x0=0.00012545 Normamps=245 length=38.0 units=m
New Line.284525700 Bus1=BT8705958 Bus2=BT15647032 phases=3 r1=0.00032182 x1=7.3636e-05 r0=0.0012818 x0=0.00012545 Normamps=245 length=45.0 units=m
New Line.256059700 Bus1=BT4722260 Bus2=BT3927308 phases=3 r1=0.00032182 x1=7.3636e-05 r0=0.0012818 x0=0.00012545 Normamps=245 length=14.0 units=m
New Line.284526500 Bus1=BT8705966 Bus2=BT8517263 phases=3 r1=0.00032182 x1=7.3636e-05 r0=0.0012818 x0=0.00012545 Normamps=245 length=32.0 units=m
New Line.284527300 Bus1=BT15647066 Bus2=BT8517261 phases=3 r1=0.00032182 x1=7.3636e-05 r0=0.0012818 x0=0.00012545 Normamps=245 length=43.0 units=m
New Line.284704400 Bus1=BT4971023 Bus2=BT3446599 phases=3 r1=0.00032182 x1=7.3636e-05 r0=0.0012818 x0=0.00012545 Normamps=245 length=23.0 units=m
New Line.284705600 Bus1=BT4400003 Bus2=BT3446587 phases=3 r1=0.00032182 x1=7.3636e-05 r0=0.0012818 x0=0.00012545 Normamps=245 length=38.0 units=m
New Line.253860700 Bus1=BT4950277 Bus2=BT4950205 phases=3 r1=0.00032182 x1=7.3636e-05 r0=0.0012818 x0=0.00012545 Normamps=245 length=36.0 units=m
New Line.254641900 Bus1=BT4803787 Bus2=BT14562072 phases=3 r1=0.00032182 x1=7.3636e-05 r0=0.0012818 x0=0.00012545 Normamps=245 length=74.0 units=m
New Line.254641100 Bus1=BT4813308 Bus2=BT4813306 phases=3 r1=0.00032182 x1=7.3636e-05 r0=0.0012818 x0=0.00012545 Normamps=245 length=42.0 units=m
New Line.253935300 Bus1=BT14722783 Bus2=BT4164628 phases=3 r1=0.00032182 x1=7.3636e-05 r0=0.0012818 x0=0.00012545 Normamps=245 length=20.0 units=m
New Line.253860100 Bus1=BT4813960 Bus2=BT4950277 phases=3 r1=0.00032182 x1=7.3636e-05 r0=0.0012818 x0=0.00012545 Normamps=245 length=30.0 units=m
New Line.4500106089 Bus1=BT3929175 Bus2=BT17965814 phases=3 r1=0.00032182 x1=7.3636e-05 r0=0.0012818 x0=0.00012545 Normamps=245 length=39.0 units=m
New Line.258794300 Bus1=BT3763665 Bus2=BT3929175 phases=3 r1=0.00032182 x1=7.3636e-05 r0=0.0012818 x0=0.00012545 Normamps=245 length=36.0 units=m
New Line.258113200 Bus1=BT3537146 Bus2=BT3006032 phases=3 r1=0.00032182 x1=7.3636e-05 r0=0.0012818 x0=0.00012545 Normamps=245 length=25.0 units=m
New Line.253935900 Bus1=BT4164628 Bus2=BT4164176 phases=3 r1=0.00032182 x1=7.3636e-05 r0=0.0012818 x0=0.00012545 Normamps=245 length=13.0 units=m
New Line.253936500 Bus1=BT4164176 Bus2=BT4019810 phases=3 r1=0.00032182 x1=7.3636e-05 r0=0.0012818 x0=0.00012545 Normamps=245 length=24.0 units=m
New Line.253937100 Bus1=BT4164628 Bus2=BT4248915 phases=3 r1=0.00032182 x1=7.3636e-05 r0=0.0012818 x0=0.00012545 Normamps=245 length=35.0 units=m
New Line.253937700 Bus1=BT4164628 Bus2=BT4248909 phases=3 r1=0.00032182 x1=7.3636e-05 r0=0.0012818 x0=0.00012545 Normamps=245 length=29.0 units=m
New Line.258785500 Bus1=BT3475315 Bus2=BT3649531 phases=3 r1=0.00032182 x1=7.3636e-05 r0=0.0012818 x0=0.00012545 Normamps=245 length=32.0 units=m
New Line.255992900 Bus1=BT14561930 Bus2=BT4365083 phases=3 r1=0.00032182 x1=7.3636e-05 r0=0.0012818 x0=0.00012545 Normamps=245 length=16.0 units=m
New Line.255989500 Bus1=BT8279681 Bus2=BT100227697 phases=3 r1=0.00032182 x1=7.3636e-05 r0=0.0012818 x0=0.00012545 Normamps=245 length=47.0 units=m
New Line.254699300 Bus1=BT18050224 Bus2=BT4311239 phases=3 r1=0.00032182 x1=7.3636e-05 r0=0.0012818 x0=0.00012545 Normamps=245 length=40.0 units=m
New Line.258769700 Bus1=BT26347791 Bus2=BT3356687 phases=3 r1=0.00032182 x1=7.3636e-05 r0=0.0012818 x0=0.00012545 Normamps=245 length=8.0 units=m
New Line.540402000 Bus1=BT9878197 Bus2=BT3592175 phases=3 r1=0.00032182 x1=7.3636e-05 r0=0.0012818 x0=0.00012545 Normamps=245 length=12.0 units=m
New Line.254698700 Bus1=BT4315475 Bus2=BT18050224 phases=3 r1=0.00032182 x1=7.3636e-05 r0=0.0012818 x0=0.00012545 Normamps=245 length=37.0 units=m
New Line.254697500 Bus1=BT4755968 Bus2=BT4372237 phases=3 r1=0.00032182 x1=7.3636e-05 r0=0.0012818 x0=0.00012545 Normamps=245 length=43.0 units=m
New Line.539996900 Bus1=BT9878017 Bus2=BT4740881 phases=3 r1=0.00032182 x1=7.3636e-05 r0=0.0012818 x0=0.00012545 Normamps=245 length=18.0 units=m
New Line.254696900 Bus1=BT4764151 Bus2=BT4755968 phases=3 r1=0.00032182 x1=7.3636e-05 r0=0.0012818 x0=0.00012545 Normamps=245 length=34.0 units=m
New Line.254696100 Bus1=BT4757507 Bus2=BT4764151 phases=3 r1=0.00032182 x1=7.3636e-05 r0=0.0012818 x0=0.00012545 Normamps=245 length=25.0 units=m
New Line.254695500 Bus1=BT3927308 Bus2=BT4757507 phases=3 r1=0.00032182 x1=7.3636e-05 r0=0.0012818 x0=0.00012545 Normamps=245 length=35.0 units=m
New Line.254615700 Bus1=BT4083510 Bus2=BT5107788 phases=3 r1=0.00032182 x1=7.3636e-05 r0=0.0012818 x0=0.00012545 Normamps=245 length=32.0 units=m
New Line.256216700 Bus1=BT4528284 Bus2=BT5043632 phases=3 r1=0.00032182 x1=7.3636e-05 r0=0.0012818 x0=0.00012545 Normamps=245 length=37.0 units=m
New Line.254614500 Bus1=BT4091494 Bus2=BT4261562 phases=3 r1=0.00032182 x1=7.3636e-05 r0=0.0012818 x0=0.00012545 Normamps=245 length=37.0 units=m
New Line.256078700 Bus1=BT4888630 Bus2=BT4669885 phases=3 r1=0.00032182 x1=7.3636e-05 r0=0.0012818 x0=0.00012545 Normamps=245 length=28.0 units=m
New Line.256001900 Bus1=BT3574160 Bus2=BT3708434 phases=3 r1=0.00032182 x1=7.3636e-05 r0=0.0012818 x0=0.00012545 Normamps=245 length=23.0 units=m
New Line.2924961900 Bus1=BT3443627 Bus2=BT15150463 phases=3 r1=0.00032182 x1=7.3636e-05 r0=0.0012818 x0=0.00012545 Normamps=245 length=14.0 units=m
New Line.256000700 Bus1=BT3592175 Bus2=BT3701919 phases=3 r1=0.00032182 x1=7.3636e-05 r0=0.0012818 x0=0.00012545 Normamps=245 length=24.0 units=m
New Line.651728900 Bus1=BT4916079 Bus2=BT11203384 phases=3 r1=0.00032182 x1=7.3636e-05 r0=0.0012818 x0=0.00012545 Normamps=245 length=11.0 units=m
New Line.255999700 Bus1=BT3677118 Bus2=BT4147988 phases=3 r1=0.00032182 x1=7.3636e-05 r0=0.0012818 x0=0.00012545 Normamps=245 length=25.0 units=m
New Line.284516100 Bus1=BT3352647 Bus2=BT3213800 phases=3 r1=0.00032182 x1=7.3636e-05 r0=0.0012818 x0=0.00012545 Normamps=245 length=40.0 units=m
New Line.258112000 Bus1=BT3006038 Bus2=BT2983930 phases=3 r1=0.00032182 x1=7.3636e-05 r0=0.0012818 x0=0.00012545 Normamps=245 length=26.0 units=m
New Line.2992066400 Bus1=BT15207894 Bus2=BT14502483 phases=3 r1=0.00032182 x1=7.3636e-05 r0=0.0012818 x0=0.00012545 Normamps=245 length=14.0 units=m
New Line.257538800 Bus1=BT3436047 Bus2=BT3066051 phases=3 r1=0.00032182 x1=7.3636e-05 r0=0.0012818 x0=0.00012545 Normamps=245 length=22.0 units=m
New Line.258688100 Bus1=BT3356687 Bus2=BT3242129 phases=3 r1=0.00032182 x1=7.3636e-05 r0=0.0012818 x0=0.00012545 Normamps=245 length=32.0 units=m
New Line.258688700 Bus1=BT3242129 Bus2=BT3395671 phases=3 r1=0.00032182 x1=7.3636e-05 r0=0.0012818 x0=0.00012545 Normamps=245 length=32.0 units=m
New Line.677966600 Bus1=BT4092883 Bus2=BT8647190 phases=3 r1=0.00032182 x1=7.3636e-05 r0=0.0012818 x0=0.00012545 Normamps=245 length=34.0 units=m
New Line.677966800 Bus1=BT3649531 Bus2=BT3435585 phases=3 r1=0.00032182 x1=7.3636e-05 r0=0.0012818 x0=0.00012545 Normamps=245 length=28.0 units=m
New Line.677967800 Bus1=BT4239412 Bus2=BT4239414 phases=3 r1=0.00032182 x1=7.3636e-05 r0=0.0012818 x0=0.00012545 Normamps=245 length=48.0 units=m
New Line.677968000 Bus1=BT100229697 Bus2=BT8279675 phases=3 r1=0.00032182 x1=7.3636e-05 r0=0.0012818 x0=0.00012545 Normamps=245 length=42.0 units=m
New Line.679107400 Bus1=BT4118191 Bus2=BT4036318 phases=3 r1=0.00032182 x1=7.3636e-05 r0=0.0012818 x0=0.00012545 Normamps=245 length=24.0 units=m
New Line.257455200 Bus1=BT3623319 Bus2=BT3373090 phases=3 r1=0.00032182 x1=7.3636e-05 r0=0.0012818 x0=0.00012545 Normamps=245 length=17.0 units=m
New Line.258689300 Bus1=BT3395671 Bus2=BT3389348 phases=3 r1=0.00032182 x1=7.3636e-05 r0=0.0012818 x0=0.00012545 Normamps=245 length=38.0 units=m
New Line.3785114900 Bus1=BT41934675 Bus2=BT3331600 phases=3 r1=0.00032182 x1=7.3636e-05 r0=0.0012818 x0=0.00012545 Normamps=245 length=36.0 units=m
New Line.258581300 Bus1=BT4115434 Bus2=BT4108670 phases=3 r1=0.00032182 x1=7.3636e-05 r0=0.0012818 x0=0.00012545 Normamps=245 length=25.0 units=m
New Line.2992066500 Bus1=BT15207894 Bus2=BT4696642 phases=3 r1=0.00032182 x1=7.3636e-05 r0=0.0012818 x0=0.00012545 Normamps=245 length=12.0 units=m
New Line.3069683800 Bus1=BT15351551 Bus2=BT3884735 phases=3 r1=0.00032182 x1=7.3636e-05 r0=0.0012818 x0=0.00012545 Normamps=245 length=18.0 units=m
New Line.3069683900 Bus1=BT15351551 Bus2=BT4791395 phases=3 r1=0.00032182 x1=7.3636e-05 r0=0.0012818 x0=0.00012545 Normamps=245 length=14.0 units=m
New Line.540402100 Bus1=BT9878197 Bus2=BT3574160 phases=3 r1=0.00032182 x1=7.3636e-05 r0=0.0012818 x0=0.00012545 Normamps=245 length=8.0 units=m
New Line.258821900 Bus1=BT110208373 Bus2=BT3087903 phases=3 r1=0.00032182 x1=7.3636e-05 r0=0.0012818 x0=0.00012545 Normamps=245 length=21.0 units=m
New Line.258817500 Bus1=BT3055470 Bus2=BT3455912 phases=3 r1=0.00032182 x1=7.3636e-05 r0=0.0012818 x0=0.00012545 Normamps=245 length=15.0 units=m
New Line.257285900 Bus1=BT8506351 Bus2=BT4393509 phases=3 r1=0.00032182 x1=7.3636e-05 r0=0.0012818 x0=0.00012545 Normamps=245 length=33.0 units=m
New Line.257285700 Bus1=BT3339916 Bus2=BT3250052 phases=3 r1=0.00032182 x1=7.3636e-05 r0=0.0012818 x0=0.00012545 Normamps=245 length=14.0 units=m
New Line.257285500 Bus1=BT3250052 Bus2=BT3250048 phases=3 r1=0.00032182 x1=7.3636e-05 r0=0.0012818 x0=0.00012545 Normamps=245 length=18.0 units=m
New Line.257284500 Bus1=BT3028617 Bus2=BT3339916 phases=3 r1=0.00032182 x1=7.3636e-05 r0=0.0012818 x0=0.00012545 Normamps=245 length=39.0 units=m
New Line.257283900 Bus1=BT4370063 Bus2=BT3028617 phases=3 r1=0.00032182 x1=7.3636e-05 r0=0.0012818 x0=0.00012545 Normamps=245 length=26.0 units=m
New Line.257283300 Bus1=BT4393509 Bus2=BT4370063 phases=3 r1=0.00032182 x1=7.3636e-05 r0=0.0012818 x0=0.00012545 Normamps=245 length=28.0 units=m
New Line.257282300 Bus1=BT8506353 Bus2=BT4400181 phases=3 r1=0.00032182 x1=7.3636e-05 r0=0.0012818 x0=0.00012545 Normamps=245 length=30.0 units=m
New Line.257232500 Bus1=BT4909091 Bus2=BT4909087 phases=3 r1=0.00032182 x1=7.3636e-05 r0=0.0012818 x0=0.00012545 Normamps=245 length=27.0 units=m
New Line.253865900 Bus1=BT4813960 Bus2=BT4800338 phases=3 r1=0.00032182 x1=7.3636e-05 r0=0.0012818 x0=0.00012545 Normamps=245 length=23.0 units=m
New Line.258792500 Bus1=BT4429453 Bus2=BT4429457 phases=3 r1=0.00032182 x1=7.3636e-05 r0=0.0012818 x0=0.00012545 Normamps=245 length=39.0 units=m
New Line.258792900 Bus1=BT3718421 Bus2=BT4429453 phases=3 r1=0.00032182 x1=7.3636e-05 r0=0.0012818 x0=0.00012545 Normamps=245 length=43.0 units=m
New Line.258793300 Bus1=BT3717657 Bus2=BT3718421 phases=3 r1=0.00032182 x1=7.3636e-05 r0=0.0012818 x0=0.00012545 Normamps=245 length=42.0 units=m
New Line.284515500 Bus1=BT3415523 Bus2=BT3352647 phases=3 r1=0.00032182 x1=7.3636e-05 r0=0.0012818 x0=0.00012545 Normamps=245 length=38.0 units=m
New Line.284514900 Bus1=BT3415659 Bus2=BT3415523 phases=3 r1=0.00032182 x1=7.3636e-05 r0=0.0012818 x0=0.00012545 Normamps=245 length=44.0 units=m
New Line.253944500 Bus1=BT8632042 Bus2=BT8632048 phases=3 r1=0.00032182 x1=7.3636e-05 r0=0.0012818 x0=0.00012545 Normamps=245 length=34.0 units=m
New Line.254515900 Bus1=BT4592445 Bus2=BT4550592 phases=3 r1=0.00032182 x1=7.3636e-05 r0=0.0012818 x0=0.00012545 Normamps=245 length=13.0 units=m
New Line.254516500 Bus1=BT4550592 Bus2=BT4550586 phases=3 r1=0.00032182 x1=7.3636e-05 r0=0.0012818 x0=0.00012545 Normamps=245 length=26.0 units=m
New Line.254517100 Bus1=BT4550586 Bus2=BT4916629 phases=3 r1=0.00032182 x1=7.3636e-05 r0=0.0012818 x0=0.00012545 Normamps=245 length=29.0 units=m
New Line.258578900 Bus1=BT13440836 Bus2=BT4214259 phases=3 r1=0.00032182 x1=7.3636e-05 r0=0.0012818 x0=0.00012545 Normamps=245 length=10.0 units=m
New Line.258578700 Bus1=BT4214259 Bus2=BT4214255 phases=3 r1=0.00032182 x1=7.3636e-05 r0=0.0012818 x0=0.00012545 Normamps=245 length=22.0 units=m
New Line.253965700 Bus1=BT4783802 Bus2=BT93725705 phases=3 r1=0.00032182 x1=7.3636e-05 r0=0.0012818 x0=0.00012545 Normamps=245 length=20.0 units=m
New Line.253943900 Bus1=BT8632048 Bus2=BT8632054 phases=3 r1=0.00032182 x1=7.3636e-05 r0=0.0012818 x0=0.00012545 Normamps=245 length=42.0 units=m
New Line.253943300 Bus1=BT8632054 Bus2=BT4030464 phases=3 r1=0.00032182 x1=7.3636e-05 r0=0.0012818 x0=0.00012545 Normamps=245 length=31.0 units=m
New Line.253942300 Bus1=BT4646776 Bus2=BT4110108 phases=3 r1=0.00032182 x1=7.3636e-05 r0=0.0012818 x0=0.00012545 Normamps=245 length=25.0 units=m
New Line.258571600 Bus1=BT4035835 Bus2=BT4065808 phases=3 r1=0.00032182 x1=7.3636e-05 r0=0.0012818 x0=0.00012545 Normamps=245 length=30.0 units=m
New Line.256793700 Bus1=BT4162686 Bus2=BT4083510 phases=3 r1=0.00032182 x1=7.3636e-05 r0=0.0012818 x0=0.00012545 Normamps=245 length=21.0 units=m
New Line.258821500 Bus1=BT3106554 Bus2=BT3102936 phases=3 r1=0.00032182 x1=7.3636e-05 r0=0.0012818 x0=0.00012545 Normamps=245 length=18.0 units=m
New Line.558484900 Bus1=BT4372237 Bus2=BT9923554 phases=3 r1=0.00032182 x1=7.3636e-05 r0=0.0012818 x0=0.00012545 Normamps=245 length=22.0 units=m
New Line.253965100 Bus1=BT4783877 Bus2=BT4783802 phases=3 r1=0.00032182 x1=7.3636e-05 r0=0.0012818 x0=0.00012545 Normamps=245 length=11.0 units=m
New Line.253941300 Bus1=BT4804714 Bus2=BT4804710 phases=3 r1=0.00032182 x1=7.3636e-05 r0=0.0012818 x0=0.00012545 Normamps=245 length=28.0 units=m
New Line.253940300 Bus1=BT11203384 Bus2=BT4908986 phases=3 r1=0.00032182 x1=7.3636e-05 r0=0.0012818 x0=0.00012545 Normamps=245 length=16.0 units=m
New Line.253962900 Bus1=BT4908241 Bus2=BT4660820 phases=3 r1=0.00032182 x1=7.3636e-05 r0=0.0012818 x0=0.00012545 Normamps=245 length=15.0 units=m
New Line.253962700 Bus1=BT4660820 Bus2=BT4660862 phases=3 r1=0.00032182 x1=7.3636e-05 r0=0.0012818 x0=0.00012545 Normamps=245 length=38.0 units=m
New Line.284522500 Bus1=BT3493464 Bus2=BT4488001 phases=3 r1=0.00032182 x1=7.3636e-05 r0=0.0012818 x0=0.00012545 Normamps=245 length=21.0 units=m
New Line.253962100 Bus1=BT4660862 Bus2=BT14685541 phases=3 r1=0.00032182 x1=7.3636e-05 r0=0.0012818 x0=0.00012545 Normamps=245 length=20.0 units=m
New Line.258816300 Bus1=BT3057991 Bus2=BT3057987 phases=3 r1=0.00032182 x1=7.3636e-05 r0=0.0012818 x0=0.00012545 Normamps=245 length=18.0 units=m
New Line.558485000 Bus1=BT9923554 Bus2=BT4315475 phases=3 r1=0.00032182 x1=7.3636e-05 r0=0.0012818 x0=0.00012545 Normamps=245 length=11.0 units=m
New Line.256255500 Bus1=BT3384863 Bus2=BT3378645 phases=3 r1=0.00032182 x1=7.3636e-05 r0=0.0012818 x0=0.00012545 Normamps=245 length=46.0 units=m
New Line.578988700 Bus1=BT9148021 Bus2=BT25357049 phases=3 r1=0.00032182 x1=7.3636e-05 r0=0.0012818 x0=0.00012545 Normamps=245 length=23.0 units=m
New Line.256254900 Bus1=BT3652094 Bus2=BT3384863 phases=3 r1=0.00032182 x1=7.3636e-05 r0=0.0012818 x0=0.00012545 Normamps=245 length=18.0 units=m
New Line.254680100 Bus1=BT4884807 Bus2=BT4807999 phases=3 r1=0.00032182 x1=7.3636e-05 r0=0.0012818 x0=0.00012545 Normamps=245 length=22.0 units=m
New Line.258571000 Bus1=BT3679499 Bus2=BT4035835 phases=3 r1=0.00032182 x1=7.3636e-05 r0=0.0012818 x0=0.00012545 Normamps=245 length=16.0 units=m
New Line.3243713900 Bus1=BT15647044 Bus2=BT8705966 phases=3 r1=0.00032182 x1=7.3636e-05 r0=0.0012818 x0=0.00012545 Normamps=245 length=24.0 units=m
New Line.284514300 Bus1=BT3410743 Bus2=BT3415659 phases=3 r1=0.00032182 x1=7.3636e-05 r0=0.0012818 x0=0.00012545 Normamps=245 length=45.0 units=m
New Line.3243713800 Bus1=BT15647032 Bus2=BT15647044 phases=3 r1=0.00032182 x1=7.3636e-05 r0=0.0012818 x0=0.00012545 Normamps=245 length=21.0 units=m
New Line.254680700 Bus1=BT4807999 Bus2=BT4807995 phases=3 r1=0.00032182 x1=7.3636e-05 r0=0.0012818 x0=0.00012545 Normamps=245 length=15.0 units=m
New Line.254681300 Bus1=BT4807995 Bus2=BT4605392 phases=3 r1=0.00032182 x1=7.3636e-05 r0=0.0012818 x0=0.00012545 Normamps=245 length=16.0 units=m
New Line.3243710500 Bus1=BT8517261 Bus2=BT15647081 phases=3 r1=0.00032182 x1=7.3636e-05 r0=0.0012818 x0=0.00012545 Normamps=245 length=31.0 units=m
New Line.2574949900 Bus1=BT3387741 Bus2=BT14525945 phases=3 r1=0.00032182 x1=7.3636e-05 r0=0.0012818 x0=0.00012545 Normamps=245 length=11.0 units=m
New Line.2574950000 Bus1=BT14525945 Bus2=BT14524059 phases=3 r1=0.00032182 x1=7.3636e-05 r0=0.0012818 x0=0.00012545 Normamps=245 length=11.0 units=m
New Line.3243709200 Bus1=BT15647097 Bus2=BT8308635 phases=3 r1=0.00032182 x1=7.3636e-05 r0=0.0012818 x0=0.00012545 Normamps=245 length=31.0 units=m
New Line.2574953700 Bus1=BT14524059 Bus2=BT100245039 phases=3 r1=0.00032182 x1=7.3636e-05 r0=0.0012818 x0=0.00012545 Normamps=245 length=16.0 units=m
New Line.256157700 Bus1=BT3415902 Bus2=BT3449361 phases=3 r1=0.00032182 x1=7.3636e-05 r0=0.0012818 x0=0.00012545 Normamps=245 length=21.0 units=m
New Line.256157100 Bus1=BT3554383 Bus2=BT3415902 phases=3 r1=0.00032182 x1=7.3636e-05 r0=0.0012818 x0=0.00012545 Normamps=245 length=26.0 units=m
New Line.256156500 Bus1=BT3554383 Bus2=BT3622005 phases=3 r1=0.00032182 x1=7.3636e-05 r0=0.0012818 x0=0.00012545 Normamps=245 length=30.0 units=m
New Line.256156100 Bus1=BT3622005 Bus2=BT3622007 phases=3 r1=0.00032182 x1=7.3636e-05 r0=0.0012818 x0=0.00012545 Normamps=245 length=32.0 units=m
New Line.256155500 Bus1=BT3369916 Bus2=BT3369910 phases=3 r1=0.00032182 x1=7.3636e-05 r0=0.0012818 x0=0.00012545 Normamps=245 length=35.0 units=m
New Line.256154900 Bus1=BT3569838 Bus2=BT3369916 phases=3 r1=0.00032182 x1=7.3636e-05 r0=0.0012818 x0=0.00012545 Normamps=245 length=37.0 units=m
New Line.257555200 Bus1=BT3031820 Bus2=BT3029061 phases=3 r1=0.00032182 x1=7.3636e-05 r0=0.0012818 x0=0.00012545 Normamps=245 length=16.0 units=m
New Line.3728006000 Bus1=BT24891780 Bus2=BT24891785 phases=3 r1=0.00032182 x1=7.3636e-05 r0=0.0012818 x0=0.00012545 Normamps=245 length=37.0 units=m
New Line.256154300 Bus1=BT3752733 Bus2=BT3569838 phases=3 r1=0.00032182 x1=7.3636e-05 r0=0.0012818 x0=0.00012545 Normamps=245 length=18.0 units=m
New Line.256153700 Bus1=BT3488755 Bus2=BT3359018 phases=3 r1=0.00032182 x1=7.3636e-05 r0=0.0012818 x0=0.00012545 Normamps=245 length=36.0 units=m
New Line.259041800 Bus1=BT3615344 Bus2=BT3525110 phases=3 r1=0.00032182 x1=7.3636e-05 r0=0.0012818 x0=0.00012545 Normamps=245 length=50.0 units=m
New Line.256153100 Bus1=BT3488761 Bus2=BT3488755 phases=3 r1=0.00032182 x1=7.3636e-05 r0=0.0012818 x0=0.00012545 Normamps=245 length=27.0 units=m
New Line.3243709100 Bus1=BT15647085 Bus2=BT15647097 phases=3 r1=0.00032182 x1=7.3636e-05 r0=0.0012818 x0=0.00012545 Normamps=245 length=29.0 units=m
New Line.254686500 Bus1=BT8647180 Bus2=BT8647174 phases=3 r1=0.00032182 x1=7.3636e-05 r0=0.0012818 x0=0.00012545 Normamps=245 length=34.0 units=m
New Line.256152500 Bus1=BT3488767 Bus2=BT3488761 phases=3 r1=0.00032182 x1=7.3636e-05 r0=0.0012818 x0=0.00012545 Normamps=245 length=40.0 units=m
New Line.254687100 Bus1=BT8647174 Bus2=BT8647168 phases=3 r1=0.00032182 x1=7.3636e-05 r0=0.0012818 x0=0.00012545 Normamps=245 length=42.0 units=m
New Line.579544600 Bus1=BT4813306 Bus2=BT4803787 phases=3 r1=0.00032182 x1=7.3636e-05 r0=0.0012818 x0=0.00012545 Normamps=245 length=42.0 units=m
New Line.284513700 Bus1=BT3210824 Bus2=BT3410743 phases=3 r1=0.00032182 x1=7.3636e-05 r0=0.0012818 x0=0.00012545 Normamps=245 length=21.0 units=m
New Line.254687700 Bus1=BT8647168 Bus2=BT8647162 phases=3 r1=0.00032182 x1=7.3636e-05 r0=0.0012818 x0=0.00012545 Normamps=245 length=41.0 units=m
New Line.254688300 Bus1=BT8647162 Bus2=BT8647156 phases=3 r1=0.00032182 x1=7.3636e-05 r0=0.0012818 x0=0.00012545 Normamps=245 length=42.0 units=m
New Line.254688900 Bus1=BT8647156 Bus2=BT8647150 phases=3 r1=0.00032182 x1=7.3636e-05 r0=0.0012818 x0=0.00012545 Normamps=245 length=36.0 units=m
New Line.254689500 Bus1=BT8647150 Bus2=BT14456677 phases=3 r1=0.00032182 x1=7.3636e-05 r0=0.0012818 x0=0.00012545 Normamps=245 length=36.0 units=m
New Line.256031900 Bus1=BT3548853 Bus2=BT3443627 phases=3 r1=0.00032182 x1=7.3636e-05 r0=0.0012818 x0=0.00012545 Normamps=245 length=41.0 units=m
New Line.258788900 Bus1=BT3666531 Bus2=BT3667524 phases=3 r1=0.00032182 x1=7.3636e-05 r0=0.0012818 x0=0.00012545 Normamps=245 length=36.0 units=m
New Line.256031300 Bus1=BT3575917 Bus2=BT3548853 phases=3 r1=0.00032182 x1=7.3636e-05 r0=0.0012818 x0=0.00012545 Normamps=245 length=51.0 units=m
New Line.258789300 Bus1=BT3372343 Bus2=BT3666531 phases=3 r1=0.00032182 x1=7.3636e-05 r0=0.0012818 x0=0.00012545 Normamps=245 length=36.0 units=m
New Line.558484700 Bus1=BT9923554 Bus2=BT4165273 phases=3 r1=0.00032182 x1=7.3636e-05 r0=0.0012818 x0=0.00012545 Normamps=245 length=10.0 units=m
New Line.284525300 Bus1=BT3332340 Bus2=BT3249069 phases=3 r1=0.00032182 x1=7.3636e-05 r0=0.0012818 x0=0.00012545 Normamps=245 length=30.0 units=m
New Line.284524700 Bus1=BT3338279 Bus2=BT3332340 phases=3 r1=0.00032182 x1=7.3636e-05 r0=0.0012818 x0=0.00012545 Normamps=245 length=38.0 units=m
New Line.558484800 Bus1=BT4678158 Bus2=BT9923554 phases=3 r1=0.00032182 x1=7.3636e-05 r0=0.0012818 x0=0.00012545 Normamps=245 length=29.0 units=m
New Line.4500116096 Bus1=BT8926105 Bus2=BT72817839 phases=3 r1=0.00032182 x1=7.3636e-05 r0=0.0012818 x0=0.00012545 Normamps=245 length=15.0 units=m
New Line.284524100 Bus1=BT3360895 Bus2=BT3338279 phases=3 r1=0.00032182 x1=7.3636e-05 r0=0.0012818 x0=0.00012545 Normamps=245 length=35.0 units=m
New Line.284523500 Bus1=BT4488001 Bus2=BT3360895 phases=3 r1=0.00032182 x1=7.3636e-05 r0=0.0012818 x0=0.00012545 Normamps=245 length=61.0 units=m
New Line.258789700 Bus1=BT3667524 Bus2=BT3223882 phases=3 r1=0.00032182 x1=7.3636e-05 r0=0.0012818 x0=0.00012545 Normamps=245 length=37.0 units=m
New Line.258790100 Bus1=BT3223882 Bus2=BT3223878 phases=3 r1=0.00032182 x1=7.3636e-05 r0=0.0012818 x0=0.00012545 Normamps=245 length=40.0 units=m
New Line.254555300 Bus1=BT4036318 Bus2=BT4152522 phases=3 r1=0.00032182 x1=7.3636e-05 r0=0.0012818 x0=0.00012545 Normamps=245 length=27.0 units=m
New Line.254555900 Bus1=BT4152522 Bus2=BT4009287 phases=3 r1=0.00032182 x1=7.3636e-05 r0=0.0012818 x0=0.00012545 Normamps=245 length=30.0 units=m
New Line.254556500 Bus1=BT4009287 Bus2=BT3678671 phases=3 r1=0.00032182 x1=7.3636e-05 r0=0.0012818 x0=0.00012545 Normamps=245 length=29.0 units=m
New Line.258112600 Bus1=BT3006032 Bus2=BT3006038 phases=3 r1=0.00032182 x1=7.3636e-05 r0=0.0012818 x0=0.00012545 Normamps=245 length=40.0 units=m
New Line.254557100 Bus1=BT3678671 Bus2=BT38813805 phases=3 r1=0.00032182 x1=7.3636e-05 r0=0.0012818 x0=0.00012545 Normamps=245 length=26.0 units=m
New Line.254557700 Bus1=BT38813805 Bus2=BT4043251 phases=3 r1=0.00032182 x1=7.3636e-05 r0=0.0012818 x0=0.00012545 Normamps=245 length=26.0 units=m
New Line.254558300 Bus1=BT4043251 Bus2=BT3413903 phases=3 r1=0.00032182 x1=7.3636e-05 r0=0.0012818 x0=0.00012545 Normamps=245 length=28.0 units=m
New Line.258790500 Bus1=BT3223878 Bus2=BT3763669 phases=3 r1=0.00032182 x1=7.3636e-05 r0=0.0012818 x0=0.00012545 Normamps=245 length=42.0 units=m
New Line.258091800 Bus1=BT4165275 Bus2=BT14562096 phases=3 r1=0.00032182 x1=7.3636e-05 r0=0.0012818 x0=0.00012545 Normamps=245 length=36.0 units=m
New Line.258794700 Bus1=BT4552825 Bus2=BT3372343 phases=3 r1=0.00032182 x1=7.3636e-05 r0=0.0012818 x0=0.00012545 Normamps=245 length=44.0 units=m
New Line.259139100 Bus1=BT3003693 Bus2=BT3304029 phases=3 r1=0.00032182 x1=7.3636e-05 r0=0.0012818 x0=0.00012545 Normamps=245 length=16.0 units=m
New Line.354174700 Bus1=BT9147907 Bus2=BT9148019 phases=3 r1=0.00032182 x1=7.3636e-05 r0=0.0012818 x0=0.00012545 Normamps=245 length=12.0 units=m
New Line.258795100 Bus1=BT4552821 Bus2=BT4552825 phases=3 r1=0.00032182 x1=7.3636e-05 r0=0.0012818 x0=0.00012545 Normamps=245 length=37.0 units=m
New Line.257868600 Bus1=BT5042388 Bus2=BT4699210 phases=3 r1=0.00032182 x1=7.3636e-05 r0=0.0012818 x0=0.00012545 Normamps=245 length=87.0 units=m
New Line.256099900 Bus1=BT5005839 Bus2=BT4904082 phases=3 r1=0.00032182 x1=7.3636e-05 r0=0.0012818 x0=0.00012545 Normamps=245 length=46.0 units=m
New Line.256100500 Bus1=BT4904082 Bus2=BT4909381 phases=3 r1=0.00032182 x1=7.3636e-05 r0=0.0012818 x0=0.00012545 Normamps=245 length=55.0 units=m
New Line.253833500 Bus1=BT5362997 Bus2=BT5424700 phases=3 r1=0.00032182 x1=7.3636e-05 r0=0.0012818 x0=0.00012545 Normamps=245 length=21.0 units=m
New Line.256101100 Bus1=BT4909381 Bus2=BT4971029 phases=3 r1=0.00032182 x1=7.3636e-05 r0=0.0012818 x0=0.00012545 Normamps=245 length=27.0 units=m
New Line.256101700 Bus1=BT4971029 Bus2=BT4971023 phases=3 r1=0.00032182 x1=7.3636e-05 r0=0.0012818 x0=0.00012545 Normamps=245 length=35.0 units=m
New Line.256146700 Bus1=BT3752733 Bus2=BT3752737 phases=3 r1=0.00032182 x1=7.3636e-05 r0=0.0012818 x0=0.00012545 Normamps=245 length=26.0 units=m
New Line.257865800 Bus1=BT5042376 Bus2=BT4775634 phases=3 r1=0.00032182 x1=7.3636e-05 r0=0.0012818 x0=0.00012545 Normamps=245 length=34.0 units=m
New Line.257865200 Bus1=BT5042376 Bus2=BT5042382 phases=3 r1=0.00032182 x1=7.3636e-05 r0=0.0012818 x0=0.00012545 Normamps=245 length=33.0 units=m
New Line.258895500 Bus1=BT3816071 Bus2=BT4804710 phases=3 r1=0.00032182 x1=7.3636e-05 r0=0.0012818 x0=0.00012545 Normamps=245 length=31.0 units=m
New Line.256147100 Bus1=BT3752733 Bus2=BT3778445 phases=3 r1=0.00032182 x1=7.3636e-05 r0=0.0012818 x0=0.00012545 Normamps=245 length=42.0 units=m
New Line.256147500 Bus1=BT3778445 Bus2=BT3588980 phases=3 r1=0.00032182 x1=7.3636e-05 r0=0.0012818 x0=0.00012545 Normamps=245 length=39.0 units=m
New Line.317310500 Bus1=BT25357053 Bus2=BT25357061 phases=3 r1=0.00032182 x1=7.3636e-05 r0=0.0012818 x0=0.00012545 Normamps=245 length=27.0 units=m
New Line.256003100 Bus1=BT13440830 Bus2=BT4232005 phases=3 r1=0.00032182 x1=7.3636e-05 r0=0.0012818 x0=0.00012545 Normamps=245 length=36.0 units=m
New Line.317311100 Bus1=BT25357049 Bus2=BT25357053 phases=3 r1=0.00032182 x1=7.3636e-05 r0=0.0012818 x0=0.00012545 Normamps=245 length=25.0 units=m
New Line.257864600 Bus1=BT5042382 Bus2=BT5042388 phases=3 r1=0.00032182 x1=7.3636e-05 r0=0.0012818 x0=0.00012545 Normamps=245 length=33.0 units=m
New Line.254613300 Bus1=BT4261568 Bus2=BT4264497 phases=3 r1=0.00032182 x1=7.3636e-05 r0=0.0012818 x0=0.00012545 Normamps=245 length=33.0 units=m