New Load.BT261305 Bus1=BT261305.2 phases=1 kW=1.0 pf=0.98 kv=0.22
New Load.BT342214 Bus1=BT342214.1 phases=1 kW=1.0 pf=0.98 kv=0.22
New Load.BT342217 Bus1=BT342217.3 phases=1 kW=1.0 pf=0.98 kv=0.22
New Load.BT255435 Bus1=BT255435.1 phases=1 kW=1.0 pf=0.98 kv=0.22
New Load.BT261283 Bus1=BT261283.1 phases=1 kW=1.0 pf=0.98 kv=0.22
New Load.BT497974 Bus1=BT497974.1 phases=1 kW=1.0 pf=0.98 kv=0.22
New Load.BT342213 Bus1=BT342213.2 phases=1 kW=1.0 pf=0.98 kv=0.22
New Load.BT261119 Bus1=BT261119.2 phases=1 kW=1.0 pf=0.98 kv=0.22
New Load.BT358155 Bus1=BT358155.1 phases=1 kW=1.0 pf=0.98 kv=0.22
New Load.BT383465 Bus1=BT383465.1 phases=1 kW=1.0 pf=0.98 kv=0.22
New Load.BT261408 Bus1=BT261408.3 phases=1 kW=1.0 pf=0.98 kv=0.22
New Load.BT261313 Bus1=BT261313.3 phases=1 kW=1.0 pf=0.98 kv=0.22
New Load.BT345427 Bus1=BT345427.1 phases=1 kW=1.0 pf=0.98 kv=0.22
New Load.BT342215 Bus1=BT342215.1 phases=1 kW=1.0 pf=0.98 kv=0.22
New Load.BT261122 Bus1=BT261122.1 phases=1 kW=1.0 pf=0.98 kv=0.22
New Load.BT340933 Bus1=BT340933.3 phases=1 kW=1.0 pf=0.98 kv=0.22
New Load.BT342216 Bus1=BT342216.2 phases=1 kW=1.0 pf=0.98 kv=0.22
New Load.BT262600 Bus1=BT262600.2 phases=1 kW=1.0 pf=0.98 kv=0.22
New Load.BT267439 Bus1=BT267439.2 phases=1 kW=1.0 pf=0.98 kv=0.22
New Load.BT260970 Bus1=BT260970.3 phases=1 kW=1.0 pf=0.98 kv=0.22
New Load.BT261198 Bus1=BT261198.3 phases=1 kW=1.0 pf=0.98 kv=0.22
New Load.BT261168 Bus1=BT261168.2 phases=1 kW=1.0 pf=0.98 kv=0.22
New Load.BT543210 Bus1=BT543210.2 phases=1 kW=1.0 pf=0.98 kv=0.22
New Load.BT15189 Bus1=BT15189.2 phases=1 kW=1.0 pf=0.98 kv=0.22
New Load.BT15185 Bus1=BT15185.1 phases=1 kW=1.0 pf=0.98 kv=0.22
New Load.BT15489 Bus1=BT15489.3 phases=1 kW=1.0 pf=0.98 kv=0.22
New Load.BT15620 Bus1=BT15620.1 phases=1 kW=1.0 pf=0.98 kv=0.22
New Load.BT15598 Bus1=BT15598.3 phases=1 kW=1.0 pf=0.98 kv=0.22
New Load.BT15195 Bus1=BT15195.3 phases=1 kW=1.0 pf=0.98 kv=0.22
New Load.BT15879 Bus1=BT15879.3 phases=1 kW=1.0 pf=0.98 kv=0.22
New Load.BT16227 Bus1=BT16227.2 phases=1 kW=1.0 pf=0.98 kv=0.22
New Load.BT22971 Bus1=BT22971.3 phases=1 kW=1.0 pf=0.98 kv=0.22
New Load.BT15422 Bus1=BT15422.3 phases=1 kW=1.0 pf=0.98 kv=0.22
New Load.BT15493 Bus1=BT15493.1 phases=1 kW=1.0 pf=0.98 kv=0.22
New Load.BT15737 Bus1=BT15737.3 phases=1 kW=1.0 pf=0.98 kv=0.22
New Load.BT15321 Bus1=BT15321.3 phases=1 kW=1.0 pf=0.98 kv=0.22
New Load.BT16007 Bus1=BT16007.1 phases=1 kW=1.0 pf=0.98 kv=0.22
New Load.BT16681 Bus1=BT16681.1 phases=1 kW=1.0 pf=0.98 kv=0.22
New Load.BT15823 Bus1=BT15823.1 phases=1 kW=1.0 pf=0.98 kv=0.22
New Load.BT15346 Bus1=BT15346.3 phases=1 kW=1.0 pf=0.98 kv=0.22
New Load.BT15635 Bus1=BT15635.2 phases=1 kW=1.0 pf=0.98 kv=0.22
New Load.BT15193 Bus1=BT15193.3 phases=1 kW=1.0 pf=0.98 kv=0.22
New Load.BT15446 Bus1=BT15446.3 phases=1 kW=1.0 pf=0.98 kv=0.22
New Load.BT15692 Bus1=BT15692.3 phases=1 kW=1.0 pf=0.98 kv=0.22
New Load.BT15208 Bus1=BT15208.2 phases=1 kW=1.0 pf=0.98 kv=0.22
New Load.BT16711 Bus1=BT16711.3 phases=1 kW=1.0 pf=0.98 kv=0.22
New Load.BT23039 Bus1=BT23039.3 phases=1 kW=1.0 pf=0.98 kv=0.22
New Load.BT15325 Bus1=BT15325.1 phases=1 kW=1.0 pf=0.98 kv=0.22
New Load.BT15890 Bus1=BT15890.3 phases=1 kW=1.0 pf=0.98 kv=0.22
New Load.BT15298 Bus1=BT15298.1 phases=1 kW=1.0 pf=0.98 kv=0.22
New Load.BT15355 Bus1=BT15355.1 phases=1 kW=1.0 pf=0.98 kv=0.22
New Load.BT15383 Bus1=BT15383.3 phases=1 kW=1.0 pf=0.98 kv=0.22
New Load.BT16018 Bus1=BT16018.2 phases=1 kW=1.0 pf=0.98 kv=0.22
New Load.BT16051 Bus1=BT16051.2 phases=1 kW=1.0 pf=0.98 kv=0.22
New Load.BT16023 Bus1=BT16023.2 phases=1 kW=1.0 pf=0.98 kv=0.22
New Load.BT15544 Bus1=BT15544.1 phases=1 kW=1.0 pf=0.98 kv=0.22
New Load.BT15705 Bus1=BT15705.3 phases=1 kW=1.0 pf=0.98 kv=0.22
New Load.BT15430 Bus1=BT15430.2 phases=1 kW=1.0 pf=0.98 kv=0.22
New Load.BT16421 Bus1=BT16421.3 phases=1 kW=1.0 pf=0.98 kv=0.22
New Load.BT15595 Bus1=BT15595.1 phases=1 kW=1.0 pf=0.98 kv=0.22
New Load.BT19086 Bus1=BT19086.3 phases=1 kW=1.0 pf=0.98 kv=0.22
New Load.BT16614 Bus1=BT16614.2 phases=1 kW=1.0 pf=0.98 kv=0.22
New Load.BT15202 Bus1=BT15202.1 phases=1 kW=1.0 pf=0.98 kv=0.22
New Load.BT15682 Bus1=BT15682.2 phases=1 kW=1.0 pf=0.98 kv=0.22
New Load.BT16142 Bus1=BT16142.3 phases=1 kW=1.0 pf=0.98 kv=0.22
New Load.BT15307 Bus1=BT15307.3 phases=1 kW=1.0 pf=0.98 kv=0.22
New Load.BT16400 Bus1=BT16400.2 phases=1 kW=1.0 pf=0.98 kv=0.22
New Load.BT16117 Bus1=BT16117.1 phases=1 kW=1.0 pf=0.98 kv=0.22
New Load.BT15180 Bus1=BT15180.3 phases=1 kW=1.0 pf=0.98 kv=0.22
New Load.BT16006 Bus1=BT16006.1 phases=1 kW=1.0 pf=0.98 kv=0.22
New Load.BT15257 Bus1=BT15257.3 phases=1 kW=1.0 pf=0.98 kv=0.22
New Load.BT15589 Bus1=BT15589.3 phases=1 kW=1.0 pf=0.98 kv=0.22
New Load.BT15337 Bus1=BT15337.3 phases=1 kW=1.0 pf=0.98 kv=0.22
New Load.BT15857 Bus1=BT15857.1 phases=1 kW=1.0 pf=0.98 kv=0.22
New Load.BT16905 Bus1=BT16905.2 phases=1 kW=1.0 pf=0.98 kv=0.22
New Load.BT22970 Bus1=BT22970.2 phases=1 kW=1.0 pf=0.98 kv=0.22
New Load.BT16096 Bus1=BT16096.1 phases=1 kW=1.0 pf=0.98 kv=0.22
New Load.BT15396 Bus1=BT15396.3 phases=1 kW=1.0 pf=0.98 kv=0.22
New Load.BT15724 Bus1=BT15724.2 phases=1 kW=1.0 pf=0.98 kv=0.22
New Load.BT26208 Bus1=BT26208.2 phases=1 kW=1.0 pf=0.98 kv=0.22
New Load.BT15463 Bus1=BT15463.1 phases=1 kW=1.0 pf=0.98 kv=0.22
New Load.BT16073 Bus1=BT16073.1 phases=1 kW=1.0 pf=0.98 kv=0.22
New Load.BT15649 Bus1=BT15649.2 phases=1 kW=1.0 pf=0.98 kv=0.22
New Load.BT16190 Bus1=BT16190.3 phases=1 kW=1.0 pf=0.98 kv=0.22
New Load.BT15341 Bus1=BT15341.1 phases=1 kW=1.0 pf=0.98 kv=0.22
New Load.BT15326 Bus1=BT15326.1 phases=1 kW=1.0 pf=0.98 kv=0.22
New Load.BT16106 Bus1=BT16106.3 phases=1 kW=1.0 pf=0.98 kv=0.22
New Load.BT15466 Bus1=BT15466.1 phases=1 kW=1.0 pf=0.98 kv=0.22
New Load.BT15221 Bus1=BT15221.2 phases=1 kW=1.0 pf=0.98 kv=0.22
New Load.BT15450 Bus1=BT15450.1 phases=1 kW=1.0 pf=0.98 kv=0.22
New Load.BT15539 Bus1=BT15539.2 phases=1 kW=1.0 pf=0.98 kv=0.22
New Load.BT15728 Bus1=BT15728.1 phases=1 kW=1.0 pf=0.98 kv=0.22
New Load.BT15415 Bus1=BT15415.2 phases=1 kW=1.0 pf=0.98 kv=0.22
New Load.BT16028 Bus1=BT16028.3 phases=1 kW=1.0 pf=0.98 kv=0.22
New Load.BT15436 Bus1=BT15436.2 phases=1 kW=1.0 pf=0.98 kv=0.22
New Load.BT23040 Bus1=BT23040.1 phases=1 kW=1.0 pf=0.98 kv=0.22
New Load.BT16170 Bus1=BT16170.2 phases=1 kW=1.0 pf=0.98 kv=0.22
New Load.BT15192 Bus1=BT15192.1 phases=1 kW=1.0 pf=0.98 kv=0.22
New Load.BT15959 Bus1=BT15959.3 phases=1 kW=1.0 pf=0.98 kv=0.22
New Load.BT15319 Bus1=BT15319.3 phases=1 kW=1.0 pf=0.98 kv=0.22
New Load.BT15668 Bus1=BT15668.2 phases=1 kW=1.0 pf=0.98 kv=0.22
New Load.BT15278 Bus1=BT15278.2 phases=1 kW=1.0 pf=0.98 kv=0.22
New Load.BT15381 Bus1=BT15381.1 phases=1 kW=1.0 pf=0.98 kv=0.22
New Load.BT16543 Bus1=BT16543.2 phases=1 kW=1.0 pf=0.98 kv=0.22
New Load.BT16860 Bus1=BT16860.2 phases=1 kW=1.0 pf=0.98 kv=0.22
New Load.BT15335 Bus1=BT15335.1 phases=1 kW=1.0 pf=0.98 kv=0.22
New Load.BT15343 Bus1=BT15343.1 phases=1 kW=1.0 pf=0.98 kv=0.22
New Load.BT15634 Bus1=BT15634.3 phases=1 kW=1.0 pf=0.98 kv=0.22
New Load.BT24234 Bus1=BT24234.3 phases=1 kW=1.0 pf=0.98 kv=0.22
New Load.BT15760 Bus1=BT15760.2 phases=1 kW=1.0 pf=0.98 kv=0.22
New Load.BT15603 Bus1=BT15603.3 phases=1 kW=1.0 pf=0.98 kv=0.22
New Load.BT15594 Bus1=BT15594.1 phases=1 kW=1.0 pf=0.98 kv=0.22
New Load.BT13367 Bus1=BT13367.1 phases=1 kW=1.0 pf=0.98 kv=0.22
New Load.BT15316 Bus1=BT15316.3 phases=1 kW=1.0 pf=0.98 kv=0.22
New Load.BT15665 Bus1=BT15665.3 phases=1 kW=1.0 pf=0.98 kv=0.22
New Load.BT15593 Bus1=BT15593.1 phases=1 kW=1.0 pf=0.98 kv=0.22
New Load.BT15693 Bus1=BT15693.1 phases=1 kW=1.0 pf=0.98 kv=0.22
New Load.BT15680 Bus1=BT15680.2 phases=1 kW=1.0 pf=0.98 kv=0.22
New Load.BT15442 Bus1=BT15442.2 phases=1 kW=1.0 pf=0.98 kv=0.22
New Load.BT15377 Bus1=BT15377.2 phases=1 kW=1.0 pf=0.98 kv=0.22
New Load.BT15491 Bus1=BT15491.1 phases=1 kW=1.0 pf=0.98 kv=0.22
New Load.BT15201 Bus1=BT15201.3 phases=1 kW=1.0 pf=0.98 kv=0.22
New Load.BT15700 Bus1=BT15700.2 phases=1 kW=1.0 pf=0.98 kv=0.22
New Load.BT22968 Bus1=BT22968.3 phases=1 kW=1.0 pf=0.98 kv=0.22
New Load.BT16500 Bus1=BT16500.3 phases=1 kW=1.0 pf=0.98 kv=0.22
New Load.BT15762 Bus1=BT15762.2 phases=1 kW=1.0 pf=0.98 kv=0.22
New Load.BT15413 Bus1=BT15413.2 phases=1 kW=1.0 pf=0.98 kv=0.22
New Load.BT15308 Bus1=BT15308.2 phases=1 kW=1.0 pf=0.98 kv=0.22
New Load.BT16144 Bus1=BT16144.1 phases=1 kW=1.0 pf=0.98 kv=0.22
New Load.BT16145 Bus1=BT16145.1 phases=1 kW=1.0 pf=0.98 kv=0.22
New Load.BT15467 Bus1=BT15467.3 phases=1 kW=1.0 pf=0.98 kv=0.22
New Load.BT15199 Bus1=BT15199.1 phases=1 kW=1.0 pf=0.98 kv=0.22
New Load.BT23035 Bus1=BT23035.1 phases=1 kW=1.0 pf=0.98 kv=0.22
New Load.BT15610 Bus1=BT15610.2 phases=1 kW=1.0 pf=0.98 kv=0.22
New Load.BT15615 Bus1=BT15615.2 phases=1 kW=1.0 pf=0.98 kv=0.22
New Load.BT21546 Bus1=BT21546.1 phases=1 kW=1.0 pf=0.98 kv=0.22
New Load.BT21952 Bus1=BT21952.2 phases=1 kW=1.0 pf=0.98 kv=0.22
New Load.BT15310 Bus1=BT15310.2 phases=1 kW=1.0 pf=0.98 kv=0.22
New Load.BT15674 Bus1=BT15674.3 phases=1 kW=1.0 pf=0.98 kv=0.22
New Load.BT16172 Bus1=BT16172.2 phases=1 kW=1.0 pf=0.98 kv=0.22
New Load.BT15495 Bus1=BT15495.1 phases=1 kW=1.0 pf=0.98 kv=0.22
New Load.BT16184 Bus1=BT16184.1 phases=1 kW=1.0 pf=0.98 kv=0.22
New Load.BT15362 Bus1=BT15362.2 phases=1 kW=1.0 pf=0.98 kv=0.22
New Load.BT15203 Bus1=BT15203.3 phases=1 kW=1.0 pf=0.98 kv=0.22
New Load.BT15557 Bus1=BT15557.3 phases=1 kW=1.0 pf=0.98 kv=0.22
New Load.BT15601 Bus1=BT15601.2 phases=1 kW=1.0 pf=0.98 kv=0.22
New Load.BT16226 Bus1=BT16226.2 phases=1 kW=1.0 pf=0.98 kv=0.22
New Load.BT15219 Bus1=BT15219.3 phases=1 kW=1.0 pf=0.98 kv=0.22
New Load.BT15369 Bus1=BT15369.1 phases=1 kW=1.0 pf=0.98 kv=0.22
New Load.BT15993 Bus1=BT15993.2 phases=1 kW=1.0 pf=0.98 kv=0.22
New Load.BT15853 Bus1=BT15853.3 phases=1 kW=1.0 pf=0.98 kv=0.22
New Load.BT15681 Bus1=BT15681.3 phases=1 kW=1.0 pf=0.98 kv=0.22
New Load.BT15209 Bus1=BT15209.1 phases=1 kW=1.0 pf=0.98 kv=0.22
New Load.BT15360 Bus1=BT15360.1 phases=1 kW=1.0 pf=0.98 kv=0.22
New Load.BT15444 Bus1=BT15444.2 phases=1 kW=1.0 pf=0.98 kv=0.22
New Load.BT16382 Bus1=BT16382.2 phases=1 kW=1.0 pf=0.98 kv=0.22
New Load.BT15479 Bus1=BT15479.1 phases=1 kW=1.0 pf=0.98 kv=0.22
New Load.BT15340 Bus1=BT15340.1 phases=1 kW=1.0 pf=0.98 kv=0.22
New Load.BT22272 Bus1=BT22272.2 phases=1 kW=1.0 pf=0.98 kv=0.22
New Load.BT16174 Bus1=BT16174.2 phases=1 kW=1.0 pf=0.98 kv=0.22
New Load.BT16212 Bus1=BT16212.3 phases=1 kW=1.0 pf=0.98 kv=0.22
New Load.BT15357 Bus1=BT15357.3 phases=1 kW=1.0 pf=0.98 kv=0.22
New Load.BT16101 Bus1=BT16101.1 phases=1 kW=1.0 pf=0.98 kv=0.22
New Load.BT15314 Bus1=BT15314.2 phases=1 kW=1.0 pf=0.98 kv=0.22
New Load.BT15482 Bus1=BT15482.3 phases=1 kW=1.0 pf=0.98 kv=0.22
New Load.BT15200 Bus1=BT15200.1 phases=1 kW=1.0 pf=0.98 kv=0.22
New Load.BT15477 Bus1=BT15477.2 phases=1 kW=1.0 pf=0.98 kv=0.22
New Load.BT15755 Bus1=BT15755.3 phases=1 kW=1.0 pf=0.98 kv=0.22
New Load.BT15287 Bus1=BT15287.1 phases=1 kW=1.0 pf=0.98 kv=0.22
New Load.BT15600 Bus1=BT15600.1 phases=1 kW=1.0 pf=0.98 kv=0.22
New Load.BT15599 Bus1=BT15599.1 phases=1 kW=1.0 pf=0.98 kv=0.22
New Load.BT15614 Bus1=BT15614.2 phases=1 kW=1.0 pf=0.98 kv=0.22
New Load.BT16171 Bus1=BT16171.1 phases=1 kW=1.0 pf=0.98 kv=0.22
New Load.BT23038 Bus1=BT23038.2 phases=1 kW=1.0 pf=0.98 kv=0.22
New Load.BT16615 Bus1=BT16615.3 phases=1 kW=1.0 pf=0.98 kv=0.22
New Load.BT15237 Bus1=BT15237.1 phases=1 kW=1.0 pf=0.98 kv=0.22
New Load.BT15481 Bus1=BT15481.2 phases=1 kW=1.0 pf=0.98 kv=0.22
New Load.BT15659 Bus1=BT15659.1 phases=1 kW=1.0 pf=0.98 kv=0.22
New Load.BT15197 Bus1=BT15197.1 phases=1 kW=1.0 pf=0.98 kv=0.22
New Load.BT15893 Bus1=BT15893.3 phases=1 kW=1.0 pf=0.98 kv=0.22
New Load.BT15984 Bus1=BT15984.3 phases=1 kW=1.0 pf=0.98 kv=0.22
New Load.BT15187 Bus1=BT15187.1 phases=1 kW=1.0 pf=0.98 kv=0.22
New Load.BT15777 Bus1=BT15777.3 phases=1 kW=1.0 pf=0.98 kv=0.22
New Load.BT15451 Bus1=BT15451.1 phases=1 kW=1.0 pf=0.98 kv=0.22
New Load.BT15327 Bus1=BT15327.3 phases=1 kW=1.0 pf=0.98 kv=0.22
New Load.BT16119 Bus1=BT16119.3 phases=1 kW=1.0 pf=0.98 kv=0.22
New Load.BT16166 Bus1=BT16166.2 phases=1 kW=1.0 pf=0.98 kv=0.22
New Load.BT15345 Bus1=BT15345.2 phases=1 kW=1.0 pf=0.98 kv=0.22
New Load.BT15604 Bus1=BT15604.1 phases=1 kW=1.0 pf=0.98 kv=0.22
New Load.BT15370 Bus1=BT15370.1 phases=1 kW=1.0 pf=0.98 kv=0.22
New Load.BT15739 Bus1=BT15739.2 phases=1 kW=1.0 pf=0.98 kv=0.22
New Load.BT15471 Bus1=BT15471.3 phases=1 kW=1.0 pf=0.98 kv=0.22
New Load.BT15392 Bus1=BT15392.2 phases=1 kW=1.0 pf=0.98 kv=0.22
New Load.BT16107 Bus1=BT16107.3 phases=1 kW=1.0 pf=0.98 kv=0.22
New Load.BT16648 Bus1=BT16648.2 phases=1 kW=1.0 pf=0.98 kv=0.22
New Load.BT15169 Bus1=BT15169.1 phases=1 kW=1.0 pf=0.98 kv=0.22
New Load.BT15311 Bus1=BT15311.1 phases=1 kW=1.0 pf=0.98 kv=0.22
New Load.BT16139 Bus1=BT16139.3 phases=1 kW=1.0 pf=0.98 kv=0.22
New Load.BT15558 Bus1=BT15558.1 phases=1 kW=1.0 pf=0.98 kv=0.22
New Load.BT16108 Bus1=BT16108.2 phases=1 kW=1.0 pf=0.98 kv=0.22
New Load.BT16550 Bus1=BT16550.1 phases=1 kW=1.0 pf=0.98 kv=0.22
New Load.BT15898 Bus1=BT15898.1 phases=1 kW=1.0 pf=0.98 kv=0.22
New Load.BT15367 Bus1=BT15367.1 phases=1 kW=1.0 pf=0.98 kv=0.22
New Load.BT16236 Bus1=BT16236.3 phases=1 kW=1.0 pf=0.98 kv=0.22
New Load.BT16273 Bus1=BT16273.3 phases=1 kW=1.0 pf=0.98 kv=0.22
New Load.BT15306 Bus1=BT15306.3 phases=1 kW=1.0 pf=0.98 kv=0.22
New Load.BT15609 Bus1=BT15609.3 phases=1 kW=1.0 pf=0.98 kv=0.22
New Load.BT16056 Bus1=BT16056.1 phases=1 kW=1.0 pf=0.98 kv=0.22
New Load.BT15469 Bus1=BT15469.1 phases=1 kW=1.0 pf=0.98 kv=0.22
New Load.BT16808 Bus1=BT16808.2 phases=1 kW=1.0 pf=0.98 kv=0.22
New Load.BT15753 Bus1=BT15753.2 phases=1 kW=1.0 pf=0.98 kv=0.22
New Load.BT15717 Bus1=BT15717.1 phases=1 kW=1.0 pf=0.98 kv=0.22
New Load.BT15317 Bus1=BT15317.3 phases=1 kW=1.0 pf=0.98 kv=0.22
New Load.BT13022 Bus1=BT13022.3 phases=1 kW=1.0 pf=0.98 kv=0.22
New Load.BT15880 Bus1=BT15880.3 phases=1 kW=1.0 pf=0.98 kv=0.22
New Load.BT15425 Bus1=BT15425.1 phases=1 kW=1.0 pf=0.98 kv=0.22
New Load.BT22273 Bus1=BT22273.1 phases=1 kW=1.0 pf=0.98 kv=0.22
New Load.BT21951 Bus1=BT21951.1 phases=1 kW=1.0 pf=0.98 kv=0.22
New Load.BT22536 Bus1=BT22536.3 phases=1 kW=1.0 pf=0.98 kv=0.22
New Load.BT15186 Bus1=BT15186.3 phases=1 kW=1.0 pf=0.98 kv=0.22
New Load.BT16883 Bus1=BT16883.2 phases=1 kW=1.0 pf=0.98 kv=0.22
New Load.BT15379 Bus1=BT15379.1 phases=1 kW=1.0 pf=0.98 kv=0.22
New Load.BT15468 Bus1=BT15468.3 phases=1 kW=1.0 pf=0.98 kv=0.22
New Load.BT15416 Bus1=BT15416.3 phases=1 kW=1.0 pf=0.98 kv=0.22
New Load.BT23037 Bus1=BT23037.1 phases=1 kW=1.0 pf=0.98 kv=0.22
New Load.BT16628 Bus1=BT16628.1 phases=1 kW=1.0 pf=0.98 kv=0.22
New Load.BT15472 Bus1=BT15472.1 phases=1 kW=1.0 pf=0.98 kv=0.22
New Load.BT15329 Bus1=BT15329.2 phases=1 kW=1.0 pf=0.98 kv=0.22
New Load.BT16186 Bus1=BT16186.2 phases=1 kW=1.0 pf=0.98 kv=0.22
New Load.BT15419 Bus1=BT15419.2 phases=1 kW=1.0 pf=0.98 kv=0.22
New Load.BT15679 Bus1=BT15679.2 phases=1 kW=1.0 pf=0.98 kv=0.22
New Load.BT16092 Bus1=BT16092.2 phases=1 kW=1.0 pf=0.98 kv=0.22
New Load.BT16165 Bus1=BT16165.3 phases=1 kW=1.0 pf=0.98 kv=0.22
New Load.BT15729 Bus1=BT15729.3 phases=1 kW=1.0 pf=0.98 kv=0.22
New Load.BT15484 Bus1=BT15484.1 phases=1 kW=1.0 pf=0.98 kv=0.22
New Load.BT15607 Bus1=BT15607.1 phases=1 kW=1.0 pf=0.98 kv=0.22
New Load.BT15239 Bus1=BT15239.2 phases=1 kW=1.0 pf=0.98 kv=0.22
New Load.BT15796 Bus1=BT15796.2 phases=1 kW=1.0 pf=0.98 kv=0.22
New Load.BT15188 Bus1=BT15188.3 phases=1 kW=1.0 pf=0.98 kv=0.22
New Load.BT15490 Bus1=BT15490.3 phases=1 kW=1.0 pf=0.98 kv=0.22
New Load.BT15292 Bus1=BT15292.3 phases=1 kW=1.0 pf=0.98 kv=0.22
New Load.BT15613 Bus1=BT15613.1 phases=1 kW=1.0 pf=0.98 kv=0.22
New Load.BT15414 Bus1=BT15414.2 phases=1 kW=1.0 pf=0.98 kv=0.22
New Load.BT15537 Bus1=BT15537.1 phases=1 kW=1.0 pf=0.98 kv=0.22
New Load.BT15480 Bus1=BT15480.2 phases=1 kW=1.0 pf=0.98 kv=0.22
New Load.BT23036 Bus1=BT23036.3 phases=1 kW=1.0 pf=0.98 kv=0.22
New Load.BT16104 Bus1=BT16104.3 phases=1 kW=1.0 pf=0.98 kv=0.22
New Load.BT16232 Bus1=BT16232.1 phases=1 kW=1.0 pf=0.98 kv=0.22
New Load.BT15293 Bus1=BT15293.3 phases=1 kW=1.0 pf=0.98 kv=0.22
New Load.BT15631 Bus1=BT15631.2 phases=1 kW=1.0 pf=0.98 kv=0.22
New Load.BT24604 Bus1=BT24604.3 phases=1 kW=1.0 pf=0.98 kv=0.22
New Load.BT15423 Bus1=BT15423.3 phases=1 kW=1.0 pf=0.98 kv=0.22
New Load.BT15303 Bus1=BT15303.1 phases=1 kW=1.0 pf=0.98 kv=0.22
New Load.BT15332 Bus1=BT15332.1 phases=1 kW=1.0 pf=0.98 kv=0.22
New Load.BT15320 Bus1=BT15320.1 phases=1 kW=1.0 pf=0.98 kv=0.22
New Load.BT16346 Bus1=BT16346.1 phases=1 kW=1.0 pf=0.98 kv=0.22
New Load.BT16083 Bus1=BT16083.2 phases=1 kW=1.0 pf=0.98 kv=0.22
New Load.BT16192 Bus1=BT16192.3 phases=1 kW=1.0 pf=0.98 kv=0.22
New Load.BT16068 Bus1=BT16068.2 phases=1 kW=1.0 pf=0.98 kv=0.22
New Load.BT15402 Bus1=BT15402.1 phases=1 kW=1.0 pf=0.98 kv=0.22
New Load.BT15735 Bus1=BT15735.3 phases=1 kW=1.0 pf=0.98 kv=0.22
New Load.BT16080 Bus1=BT16080.2 phases=1 kW=1.0 pf=0.98 kv=0.22
New Load.BT15882 Bus1=BT15882.2 phases=1 kW=1.0 pf=0.98 kv=0.22
New Load.BT15828 Bus1=BT15828.1 phases=1 kW=1.0 pf=0.98 kv=0.22
New Load.BT15315 Bus1=BT15315.2 phases=1 kW=1.0 pf=0.98 kv=0.22
New Load.BT15435 Bus1=BT15435.2 phases=1 kW=1.0 pf=0.98 kv=0.22
New Load.BT15473 Bus1=BT15473.1 phases=1 kW=1.0 pf=0.98 kv=0.22
New Load.BT16088 Bus1=BT16088.1 phases=1 kW=1.0 pf=0.98 kv=0.22
New Load.BT16103 Bus1=BT16103.2 phases=1 kW=1.0 pf=0.98 kv=0.22
New Load.BT16229 Bus1=BT16229.3 phases=1 kW=1.0 pf=0.98 kv=0.22
New Load.BT16140 Bus1=BT16140.1 phases=1 kW=1.0 pf=0.98 kv=0.22
New Load.BT15824 Bus1=BT15824.2 phases=1 kW=1.0 pf=0.98 kv=0.22
New Load.BT15324 Bus1=BT15324.3 phases=1 kW=1.0 pf=0.98 kv=0.22
New Load.BT15695 Bus1=BT15695.2 phases=1 kW=1.0 pf=0.98 kv=0.22
New Load.BT15877 Bus1=BT15877.3 phases=1 kW=1.0 pf=0.98 kv=0.22
New Load.BT15333 Bus1=BT15333.1 phases=1 kW=1.0 pf=0.98 kv=0.22
New Load.BT22969 Bus1=BT22969.3 phases=1 kW=1.0 pf=0.98 kv=0.22
New Load.BT15670 Bus1=BT15670.2 phases=1 kW=1.0 pf=0.98 kv=0.22
New Load.BT15312 Bus1=BT15312.2 phases=1 kW=1.0 pf=0.98 kv=0.22
New Load.BT15439 Bus1=BT15439.2 phases=1 kW=1.0 pf=0.98 kv=0.22
New Load.BT16095 Bus1=BT16095.2 phases=1 kW=1.0 pf=0.98 kv=0.22
New Load.BT23067 Bus1=BT23067.2 phases=1 kW=1.0 pf=0.98 kv=0.22
New Load.BT16085 Bus1=BT16085.1 phases=1 kW=1.0 pf=0.98 kv=0.22
New Load.BT17023 Bus1=BT17023.3 phases=1 kW=1.0 pf=0.98 kv=0.22
New Load.BT16182 Bus1=BT16182.2 phases=1 kW=1.0 pf=0.98 kv=0.22
New Load.BT16164 Bus1=BT16164.2 phases=1 kW=1.0 pf=0.98 kv=0.22
New Load.BT16100 Bus1=BT16100.2 phases=1 kW=1.0 pf=0.98 kv=0.22
New Load.BT15330 Bus1=BT15330.1 phases=1 kW=1.0 pf=0.98 kv=0.22
New Load.BT15636 Bus1=BT15636.2 phases=1 kW=1.0 pf=0.98 kv=0.22
New Load.BT15486 Bus1=BT15486.3 phases=1 kW=1.0 pf=0.98 kv=0.22
New Load.BT15606 Bus1=BT15606.3 phases=1 kW=1.0 pf=0.98 kv=0.22
New Load.BT16110 Bus1=BT16110.2 phases=1 kW=1.0 pf=0.98 kv=0.22
New Load.BT15336 Bus1=BT15336.1 phases=1 kW=1.0 pf=0.98 kv=0.22
New Load.BT15429 Bus1=BT15429.1 phases=1 kW=1.0 pf=0.98 kv=0.22
New Load.BT15708 Bus1=BT15708.2 phases=1 kW=1.0 pf=0.98 kv=0.22
New Load.BT15611 Bus1=BT15611.1 phases=1 kW=1.0 pf=0.98 kv=0.22
New Load.BT15426 Bus1=BT15426.3 phases=1 kW=1.0 pf=0.98 kv=0.22
New Load.BT15559 Bus1=BT15559.1 phases=1 kW=1.0 pf=0.98 kv=0.22
New Load.BT15538 Bus1=BT15538.3 phases=1 kW=1.0 pf=0.98 kv=0.22
New Load.BT15562 Bus1=BT15562.1 phases=1 kW=1.0 pf=0.98 kv=0.22
New Load.BT16081 Bus1=BT16081.1 phases=1 kW=1.0 pf=0.98 kv=0.22
New Load.BT15452 Bus1=BT15452.1 phases=1 kW=1.0 pf=0.98 kv=0.22
New Load.BT15641 Bus1=BT15641.1 phases=1 kW=1.0 pf=0.98 kv=0.22
New Load.BT16568 Bus1=BT16568.1 phases=1 kW=1.0 pf=0.98 kv=0.22
New Load.BT15382 Bus1=BT15382.1 phases=1 kW=1.0 pf=0.98 kv=0.22
New Load.BT16618 Bus1=BT16618.3 phases=1 kW=1.0 pf=0.98 kv=0.22
New Load.BT15366 Bus1=BT15366.2 phases=1 kW=1.0 pf=0.98 kv=0.22
New Load.BT22967 Bus1=BT22967.1 phases=1 kW=1.0 pf=0.98 kv=0.22
New Load.BT15494 Bus1=BT15494.2 phases=1 kW=1.0 pf=0.98 kv=0.22
New Load.BT15291 Bus1=BT15291.3 phases=1 kW=1.0 pf=0.98 kv=0.22
New Load.BT15365 Bus1=BT15365.2 phases=1 kW=1.0 pf=0.98 kv=0.22
New Load.BT15313 Bus1=BT15313.2 phases=1 kW=1.0 pf=0.98 kv=0.22
New Load.BT24729 Bus1=BT24729.1 phases=1 kW=1.0 pf=0.98 kv=0.22
New Load.BT16175 Bus1=BT16175.3 phases=1 kW=1.0 pf=0.98 kv=0.22
New Load.BT16109 Bus1=BT16109.2 phases=1 kW=1.0 pf=0.98 kv=0.22
New Load.BT16221 Bus1=BT16221.1 phases=1 kW=1.0 pf=0.98 kv=0.22
New Load.BT15251 Bus1=BT15251.3 phases=1 kW=1.0 pf=0.98 kv=0.22
New Load.BT15768 Bus1=BT15768.1 phases=1 kW=1.0 pf=0.98 kv=0.22
New Load.BT15907 Bus1=BT15907.2 phases=1 kW=1.0 pf=0.98 kv=0.22
New Load.BT15454 Bus1=BT15454.1 phases=1 kW=1.0 pf=0.98 kv=0.22
New Load.BT24388 Bus1=BT24388.2 phases=1 kW=1.0 pf=0.98 kv=0.22
New Load.BT15289 Bus1=BT15289.1 phases=1 kW=1.0 pf=0.98 kv=0.22
New Load.BT15619 Bus1=BT15619.2 phases=1 kW=1.0 pf=0.98 kv=0.22
New Load.BT15300 Bus1=BT15300.2 phases=1 kW=1.0 pf=0.98 kv=0.22
New Load.BT15428 Bus1=BT15428.2 phases=1 kW=1.0 pf=0.98 kv=0.22
New Load.BT15980 Bus1=BT15980.3 phases=1 kW=1.0 pf=0.98 kv=0.22
New Load.BT15334 Bus1=BT15334.1 phases=1 kW=1.0 pf=0.98 kv=0.22
New Load.BT15364 Bus1=BT15364.1 phases=1 kW=1.0 pf=0.98 kv=0.22
New Load.BT15846 Bus1=BT15846.3 phases=1 kW=1.0 pf=0.98 kv=0.22
New Load.BT16214 Bus1=BT16214.1 phases=1 kW=1.0 pf=0.98 kv=0.22
New Load.BT16206 Bus1=BT16206.2 phases=1 kW=1.0 pf=0.98 kv=0.22
New Load.BT23250 Bus1=BT23250.1 phases=1 kW=1.0 pf=0.98 kv=0.22
New Load.BT16202 Bus1=BT16202.1 phases=1 kW=1.0 pf=0.98 kv=0.22
New Load.BT17455 Bus1=BT17455.3 phases=1 kW=1.0 pf=0.98 kv=0.22
New Load.BT15368 Bus1=BT15368.3 phases=1 kW=1.0 pf=0.98 kv=0.22
New Load.BT15734 Bus1=BT15734.3 phases=1 kW=1.0 pf=0.98 kv=0.22
New Load.BT16185 Bus1=BT16185.3 phases=1 kW=1.0 pf=0.98 kv=0.22
New Load.BT16065 Bus1=BT16065.3 phases=1 kW=1.0 pf=0.98 kv=0.22
New Load.BT16094 Bus1=BT16094.1 phases=1 kW=1.0 pf=0.98 kv=0.22
New Load.BT15602 Bus1=BT15602.1 phases=1 kW=1.0 pf=0.98 kv=0.22
New Load.BT16079 Bus1=BT16079.2 phases=1 kW=1.0 pf=0.98 kv=0.22
New Load.BT16180 Bus1=BT16180.3 phases=1 kW=1.0 pf=0.98 kv=0.22
New Load.BT15344 Bus1=BT15344.1 phases=1 kW=1.0 pf=0.98 kv=0.22
New Load.BT15661 Bus1=BT15661.1 phases=1 kW=1.0 pf=0.98 kv=0.22
New Load.BT16093 Bus1=BT16093.3 phases=1 kW=1.0 pf=0.98 kv=0.22
New Load.BT15294 Bus1=BT15294.3 phases=1 kW=1.0 pf=0.98 kv=0.22
New Load.BT15395 Bus1=BT15395.1 phases=1 kW=1.0 pf=0.98 kv=0.22
New Load.BT15906 Bus1=BT15906.1 phases=1 kW=1.0 pf=0.98 kv=0.22
New Load.BT15184 Bus1=BT15184.1 phases=1 kW=1.0 pf=0.98 kv=0.22
New Load.BT15347 Bus1=BT15347.1 phases=1 kW=1.0 pf=0.98 kv=0.22
New Load.BT15740 Bus1=BT15740.3 phases=1 kW=1.0 pf=0.98 kv=0.22
New Load.BT16075 Bus1=BT16075.2 phases=1 kW=1.0 pf=0.98 kv=0.22
New Load.BT16637 Bus1=BT16637.1 phases=1 kW=1.0 pf=0.98 kv=0.22
New Load.BT15627 Bus1=BT15627.3 phases=1 kW=1.0 pf=0.98 kv=0.22
New Load.BT15474 Bus1=BT15474.2 phases=1 kW=1.0 pf=0.98 kv=0.22
New Load.BT15323 Bus1=BT15323.3 phases=1 kW=1.0 pf=0.98 kv=0.22
New Load.BT15397 Bus1=BT15397.3 phases=1 kW=1.0 pf=0.98 kv=0.22
New Load.BT16009 Bus1=BT16009.1 phases=1 kW=1.0 pf=0.98 kv=0.22
New Load.BT16806 Bus1=BT16806.2 phases=1 kW=1.0 pf=0.98 kv=0.22
New Load.BT16213 Bus1=BT16213.2 phases=1 kW=1.0 pf=0.98 kv=0.22
New Load.BT15626 Bus1=BT15626.1 phases=1 kW=1.0 pf=0.98 kv=0.22
New Load.BT15542 Bus1=BT15542.2 phases=1 kW=1.0 pf=0.98 kv=0.22
New Load.BT16216 Bus1=BT16216.2 phases=1 kW=1.0 pf=0.98 kv=0.22
New Load.BT16049 Bus1=BT16049.3 phases=1 kW=1.0 pf=0.98 kv=0.22
New Load.BT16217 Bus1=BT16217.2 phases=1 kW=1.0 pf=0.98 kv=0.22
New Load.BT16084 Bus1=BT16084.2 phases=1 kW=1.0 pf=0.98 kv=0.22
New Load.BT15318 Bus1=BT15318.3 phases=1 kW=1.0 pf=0.98 kv=0.22
New Load.BT15449 Bus1=BT15449.2 phases=1 kW=1.0 pf=0.98 kv=0.22
New Load.BT15338 Bus1=BT15338.3 phases=1 kW=1.0 pf=0.98 kv=0.22
New Load.BT15465 Bus1=BT15465.2 phases=1 kW=1.0 pf=0.98 kv=0.22
New Load.BT15706 Bus1=BT15706.2 phases=1 kW=1.0 pf=0.98 kv=0.22
New Load.BT15194 Bus1=BT15194.3 phases=1 kW=1.0 pf=0.98 kv=0.22
New Load.BT16050 Bus1=BT16050.2 phases=1 kW=1.0 pf=0.98 kv=0.22
New Load.BT15738 Bus1=BT15738.1 phases=1 kW=1.0 pf=0.98 kv=0.22
New Load.BT15290 Bus1=BT15290.1 phases=1 kW=1.0 pf=0.98 kv=0.22
New Load.BT15441 Bus1=BT15441.3 phases=1 kW=1.0 pf=0.98 kv=0.22
New Load.BT16064 Bus1=BT16064.1 phases=1 kW=1.0 pf=0.98 kv=0.22
New Load.BT16102 Bus1=BT16102.3 phases=1 kW=1.0 pf=0.98 kv=0.22
New Load.BT21989 Bus1=BT21989.1 phases=1 kW=1.0 pf=0.98 kv=0.22
New Load.BT13161 Bus1=BT13161.3 phases=1 kW=1.0 pf=0.98 kv=0.22
New Load.BT15356 Bus1=BT15356.2 phases=1 kW=1.0 pf=0.98 kv=0.22
New Load.BT16010 Bus1=BT16010.1 phases=1 kW=1.0 pf=0.98 kv=0.22
New Load.BT16335 Bus1=BT16335.3 phases=1 kW=1.0 pf=0.98 kv=0.22
New Load.BT17598 Bus1=BT17598.3 phases=1 kW=1.0 pf=0.98 kv=0.22
New Load.BT15448 Bus1=BT15448.3 phases=1 kW=1.0 pf=0.98 kv=0.22
New Load.BT15418 Bus1=BT15418.1 phases=1 kW=1.0 pf=0.98 kv=0.22
New Load.BT15378 Bus1=BT15378.3 phases=1 kW=1.0 pf=0.98 kv=0.22
New Load.BT16105 Bus1=BT16105.1 phases=1 kW=1.0 pf=0.98 kv=0.22
New Load.BT15483 Bus1=BT15483.1 phases=1 kW=1.0 pf=0.98 kv=0.22
New Load.BT16546 Bus1=BT16546.1 phases=1 kW=1.0 pf=0.98 kv=0.22
New Load.BT15543 Bus1=BT15543.3 phases=1 kW=1.0 pf=0.98 kv=0.22
New Load.BT16211 Bus1=BT16211.1 phases=1 kW=1.0 pf=0.98 kv=0.22
New Load.BT16814 Bus1=BT16814.1 phases=1 kW=1.0 pf=0.98 kv=0.22
New Load.BT16191 Bus1=BT16191.1 phases=1 kW=1.0 pf=0.98 kv=0.22
New Load.BT15732 Bus1=BT15732.1 phases=1 kW=1.0 pf=0.98 kv=0.22
New Load.BT16181 Bus1=BT16181.1 phases=1 kW=1.0 pf=0.98 kv=0.22
New Load.BT15860 Bus1=BT15860.1 phases=1 kW=1.0 pf=0.98 kv=0.22
New Load.BT15198 Bus1=BT15198.2 phases=1 kW=1.0 pf=0.98 kv=0.22
New Load.BT15496 Bus1=BT15496.3 phases=1 kW=1.0 pf=0.98 kv=0.22
New Load.BT15535 Bus1=BT15535.2 phases=1 kW=1.0 pf=0.98 kv=0.22
New Load.BT15612 Bus1=BT15612.3 phases=1 kW=1.0 pf=0.98 kv=0.22
New Load.BT15183 Bus1=BT15183.3 phases=1 kW=1.0 pf=0.98 kv=0.22
New Load.BT15819 Bus1=BT15819.2 phases=1 kW=1.0 pf=0.98 kv=0.22
New Load.BT15302 Bus1=BT15302.2 phases=1 kW=1.0 pf=0.98 kv=0.22
New Load.BT15204 Bus1=BT15204.1 phases=1 kW=1.0 pf=0.98 kv=0.22
New Load.BT15309 Bus1=BT15309.1 phases=1 kW=1.0 pf=0.98 kv=0.22
New Load.BT15354 Bus1=BT15354.1 phases=1 kW=1.0 pf=0.98 kv=0.22
New Load.BT18328 Bus1=BT18328.2 phases=1 kW=1.0 pf=0.98 kv=0.22
New Load.BT15731 Bus1=BT15731.1 phases=1 kW=1.0 pf=0.98 kv=0.22
New Load.BT15541 Bus1=BT15541.3 phases=1 kW=1.0 pf=0.98 kv=0.22
New Load.BT15207 Bus1=BT15207.2 phases=1 kW=1.0 pf=0.98 kv=0.22
New Load.BT15205 Bus1=BT15205.1 phases=1 kW=1.0 pf=0.98 kv=0.22
New Load.BT15445 Bus1=BT15445.2 phases=1 kW=1.0 pf=0.98 kv=0.22
New Load.BT16220 Bus1=BT16220.2 phases=1 kW=1.0 pf=0.98 kv=0.22
New Load.BT16082 Bus1=BT16082.2 phases=1 kW=1.0 pf=0.98 kv=0.22
New Load.BT16551 Bus1=BT16551.1 phases=1 kW=1.0 pf=0.98 kv=0.22
New Load.BT13036 Bus1=BT13036.3 phases=1 kW=1.0 pf=0.98 kv=0.22
New Load.BT15191 Bus1=BT15191.1 phases=1 kW=1.0 pf=0.98 kv=0.22
New Load.BT15196 Bus1=BT15196.2 phases=1 kW=1.0 pf=0.98 kv=0.22
New Load.BT15218 Bus1=BT15218.3 phases=1 kW=1.0 pf=0.98 kv=0.22
New Load.BT16118 Bus1=BT16118.1 phases=1 kW=1.0 pf=0.98 kv=0.22
New Load.BT15295 Bus1=BT15295.3 phases=1 kW=1.0 pf=0.98 kv=0.22
New Load.BT15440 Bus1=BT15440.3 phases=1 kW=1.0 pf=0.98 kv=0.22
New Load.BT15488 Bus1=BT15488.2 phases=1 kW=1.0 pf=0.98 kv=0.22
New Load.BT16891 Bus1=BT16891.1 phases=1 kW=1.0 pf=0.98 kv=0.22
New Load.BT15296 Bus1=BT15296.3 phases=1 kW=1.0 pf=0.98 kv=0.22
New Load.BT16143 Bus1=BT16143.1 phases=1 kW=1.0 pf=0.98 kv=0.22
New Load.BT15741 Bus1=BT15741.1 phases=1 kW=1.0 pf=0.98 kv=0.22
New Load.BT23034 Bus1=BT23034.1 phases=1 kW=1.0 pf=0.98 kv=0.22
New Load.BT15331 Bus1=BT15331.3 phases=1 kW=1.0 pf=0.98 kv=0.22
New Load.BT15206 Bus1=BT15206.3 phases=1 kW=1.0 pf=0.98 kv=0.22
New Load.BT15380 Bus1=BT15380.2 phases=1 kW=1.0 pf=0.98 kv=0.22
New Load.BT15798 Bus1=BT15798.3 phases=1 kW=1.0 pf=0.98 kv=0.22
New Load.BT15492 Bus1=BT15492.1 phases=1 kW=1.0 pf=0.98 kv=0.22
New Load.BT16863 Bus1=BT16863.2 phases=1 kW=1.0 pf=0.98 kv=0.22
New Load.BT16204 Bus1=BT16204.2 phases=1 kW=1.0 pf=0.98 kv=0.22
New Load.BT15678 Bus1=BT15678.3 phases=1 kW=1.0 pf=0.98 kv=0.22
New Load.BT16357 Bus1=BT16357.1 phases=1 kW=1.0 pf=0.98 kv=0.22
New Load.BT15470 Bus1=BT15470.3 phases=1 kW=1.0 pf=0.98 kv=0.22
New Load.BT15363 Bus1=BT15363.1 phases=1 kW=1.0 pf=0.98 kv=0.22
New Load.BT15299 Bus1=BT15299.1 phases=1 kW=1.0 pf=0.98 kv=0.22
New Load.BT15427 Bus1=BT15427.1 phases=1 kW=1.0 pf=0.98 kv=0.22
New Load.BT16122 Bus1=BT16122.3 phases=1 kW=1.0 pf=0.98 kv=0.22
New Load.BT16189 Bus1=BT16189.3 phases=1 kW=1.0 pf=0.98 kv=0.22
New Load.BT16111 Bus1=BT16111.1 phases=1 kW=1.0 pf=0.98 kv=0.22
New Load.BT15276 Bus1=BT15276.2 phases=1 kW=1.0 pf=0.98 kv=0.22
New Load.BT15437 Bus1=BT15437.3 phases=1 kW=1.0 pf=0.98 kv=0.22
New Load.BT15351 Bus1=BT15351.3 phases=1 kW=1.0 pf=0.98 kv=0.22
New Load.BT16121 Bus1=BT16121.3 phases=1 kW=1.0 pf=0.98 kv=0.22
New Load.BT15217 Bus1=BT15217.1 phases=1 kW=1.0 pf=0.98 kv=0.22
New Load.BT15747 Bus1=BT15747.2 phases=1 kW=1.0 pf=0.98 kv=0.22
New Load.BT16120 Bus1=BT16120.3 phases=1 kW=1.0 pf=0.98 kv=0.22
New Load.BT15288 Bus1=BT15288.2 phases=1 kW=1.0 pf=0.98 kv=0.22
New Load.BT16074 Bus1=BT16074.2 phases=1 kW=1.0 pf=0.98 kv=0.22
New Load.BT15608 Bus1=BT15608.3 phases=1 kW=1.0 pf=0.98 kv=0.22
New Load.BT114989 bus1=BT114989.3 phases=1 kW=1.0 pf=0.98 kv=0.22
New Load.BT114090 bus1=BT114090.2 phases=1 kW=1.0 pf=0.98 kv=0.22
New Load.BT114064 bus1=BT114064.2 phases=1 kW=1.0 pf=0.98 kv=0.22
New Load.BT114073 bus1=BT114073.2 phases=1 kW=1.0 pf=0.98 kv=0.22
New Load.BT114003 bus1=BT114003.1 phases=1 kW=1.0 pf=0.98 kv=0.22
New Load.BT114806 bus1=BT114806.2 phases=1 kW=1.0 pf=0.98 kv=0.22
New Load.BT114938 bus1=BT114938.3 phases=1 kW=1.0 pf=0.98 kv=0.22
New Load.BT339673 bus1=BT339673.2 phases=1 kW=1.0 pf=0.98 kv=0.22
New Load.BT371272 bus1=BT371272.2 phases=1 kW=1.0 pf=0.98 kv=0.22
New Load.BT345167 bus1=BT345167.3 phases=1 kW=1.0 pf=0.98 kv=0.22
New Load.BT342229 bus1=BT342229.1 phases=1 kW=1.0 pf=0.98 kv=0.22
New Load.BT110073 bus1=BT110073.1 phases=1 kW=1.0 pf=0.98 kv=0.22