New Line.MT1 Bus1=MT9305747 Bus2=MT8341721 phases=3 r1=0.0002385 x1=6.4433e-05 r0=0.000716 x0=0.000257 Normamps=250.2 length=0.01 units=m
New Line.MT2 Bus1=MT85166803 Bus2=MT154269644 phases=3 r1=0.0002385 x1=6.4433e-05 r0=0.000716 x0=0.000257 Normamps=250.2 length=0.01 units=m
New Line.MT3 Bus1=MT85668498 Bus2=MT76047178 phases=3 r1=0.0002385 x1=6.4433e-05 r0=0.000716 x0=0.000257 Normamps=250.2 length=0.01 units=m
New Line.MT4 Bus1=MT15815410 Bus2=MT266332429 phases=3 r1=0.0002385 x1=6.4433e-05 r0=0.000716 x0=0.000257 Normamps=250.2 length=0.01 units=m
New Line.MT5 Bus1=MT183147020 Bus2=MT183148773 phases=3 r1=0.0002385 x1=6.4433e-05 r0=0.000716 x0=0.000257 Normamps=250.2 length=0.01 units=m
New Line.MT6 Bus1=MT46594250 Bus2=MT46594258 phases=3 r1=0.0002385 x1=6.4433e-05 r0=0.000716 x0=0.000257 Normamps=250.2 length=0.01 units=m
New Line.MT7 Bus1=MT31363709 Bus2=MT31363702 phases=3 r1=0.0002385 x1=6.4433e-05 r0=0.000716 x0=0.000257 Normamps=250.2 length=0.01 units=m
New Line.MT8 Bus1=MT100233837 Bus2=MT251480271 phases=3 r1=0.0002385 x1=6.4433e-05 r0=0.000716 x0=0.000257 Normamps=250.2 length=0.01 units=m
New Line.MT9 Bus1=MT8506412 Bus2=MT85675404 phases=3 r1=0.0002385 x1=6.4433e-05 r0=0.000716 x0=0.000257 Normamps=250.2 length=0.01 units=m
New Line.MT10 Bus1=MT15104542 Bus2=MT15176924 phases=3 r1=0.0002385 x1=6.4433e-05 r0=0.000716 x0=0.000257 Normamps=250.2 length=0.01 units=m
New Line.MT11 Bus1=MT5593192 Bus2=MT39381556 phases=3 r1=0.0002385 x1=6.4433e-05 r0=0.000716 x0=0.000257 Normamps=250.2 length=0.01 units=m
New Line.MT12 Bus1=MT14472678 Bus2=MT14855069 phases=3 r1=0.0002385 x1=6.4433e-05 r0=0.000716 x0=0.000257 Normamps=250.2 length=0.01 units=m
New Line.MT13 Bus1=MT9307650 Bus2=MT150440630 phases=3 r1=0.0002385 x1=6.4433e-05 r0=0.000716 x0=0.000257 Normamps=250.2 length=0.01 units=m
New Line.MT14 Bus1=MT8506397 Bus2=MT8633193 phases=3 r1=0.0002385 x1=6.4433e-05 r0=0.000716 x0=0.000257 Normamps=250.2 length=0.01 units=m
New Line.MT15 Bus1=MT44386942 Bus2=MT255249299 phases=3 r1=0.0002385 x1=6.4433e-05 r0=0.000716 x0=0.000257 Normamps=250.2 length=0.01 units=m
New Line.MT16 Bus1=MT80310990 Bus2=MT80338907 phases=3 r1=0.0002385 x1=6.4433e-05 r0=0.000716 x0=0.000257 Normamps=250.2 length=0.01 units=m
New Line.MT17 Bus1=MT80310990 Bus2=MT80311069 phases=3 r1=0.0002385 x1=6.4433e-05 r0=0.000716 x0=0.000257 Normamps=250.2 length=0.01 units=m
New Line.MT18 Bus1=MT17814358 Bus2=MT17814362 phases=3 r1=0.0002385 x1=6.4433e-05 r0=0.000716 x0=0.000257 Normamps=250.2 length=0.01 units=m
New Line.MT19 Bus1=MT3875002 Bus2=MT3875003 phases=3 r1=0.0002385 x1=6.4433e-05 r0=0.000716 x0=0.000257 Normamps=250.2 length=0.01 units=m
New Line.MT20 Bus1=MT14472678 Bus2=MT14472681 phases=3 r1=0.0002385 x1=6.4433e-05 r0=0.000716 x0=0.000257 Normamps=250.2 length=0.01 units=m
New Line.MT21 Bus1=MT15104542 Bus2=MT15176924 phases=3 r1=0.0002385 x1=6.4433e-05 r0=0.000716 x0=0.000257 Normamps=250.2 length=0.01 units=m
New Line.MT22 Bus1=MT8506412 Bus2=MT85675404 phases=3 r1=0.0002385 x1=6.4433e-05 r0=0.000716 x0=0.000257 Normamps=250.2 length=0.01 units=m
New Line.MT23 Bus1=MT15104542 Bus2=MT15176924 phases=3 r1=0.0002385 x1=6.4433e-05 r0=0.000716 x0=0.000257 Normamps=250.2 length=0.01 units=m
New Line.662680900 Bus1=MT11315035 Bus2=MT11315053 phases=3 r1=0.0002385 x1=6.4433e-05 r0=0.000716 x0=0.000257 Normamps=250.2 length=12.0 units=m
New Line.662681000 Bus1=MT11315053 Bus2=MT11315061 phases=3 r1=0.0002385 x1=6.4433e-05 r0=0.000716 x0=0.000257 Normamps=250.2 length=26.0 units=m
New Line.662681100 Bus1=MT11315056 Bus2=MT11315049 phases=3 r1=0.0002385 x1=6.4433e-05 r0=0.000716 x0=0.000257 Normamps=250.2 length=37.0 units=m
New Line.662681200 Bus1=MT11315049 Bus2=MT11315046 phases=3 r1=0.0002385 x1=6.4433e-05 r0=0.000716 x0=0.000257 Normamps=250.2 length=39.0 units=m
New Line.307653700 Bus1=MT9305792 Bus2=MT8308601 phases=3 r1=0.0002385 x1=6.4433e-05 r0=0.000716 x0=0.000257 Normamps=250.2 length=28.0 units=m
New Line.307653600 Bus1=MT9305797 Bus2=MT9305792 phases=3 r1=0.0002385 x1=6.4433e-05 r0=0.000716 x0=0.000257 Normamps=250.2 length=27.0 units=m
New Line.4500627071 Bus1=MT8341721 Bus2=MT9305797 phases=3 r1=0.0002385 x1=6.4433e-05 r0=0.000716 x0=0.000257 Normamps=250.2 length=28.0 units=m
New Line.662681300 Bus1=MT11315046 Bus2=MT11315685 phases=3 r1=0.0002385 x1=6.4433e-05 r0=0.000716 x0=0.000257 Normamps=250.2 length=32.0 units=m
New Line.307654500 Bus1=MT9305747 Bus2=MT9305735 phases=3 r1=0.0002385 x1=6.4433e-05 r0=0.000716 x0=0.000257 Normamps=250.2 length=19.0 units=m
New Line.17990000 Bus1=MT4507603 Bus2=MT4524117 phases=3 r1=0.0002385 x1=6.4433e-05 r0=0.000716 x0=0.000257 Normamps=250.2 length=30.0 units=m
New Line.4500108176 Bus1=MT8308609 Bus2=MT9305694 phases=3 r1=0.0002385 x1=6.4433e-05 r0=0.000716 x0=0.000257 Normamps=250.2 length=11.0 units=m
New Line.4500108404 Bus1=MT9305746 Bus2=MT8308618 phases=3 r1=0.0002385 x1=6.4433e-05 r0=0.000716 x0=0.000257 Normamps=250.2 length=27.0 units=m
New Line.4500108405 Bus1=MT9305730 Bus2=MT8308612 phases=3 r1=0.0002385 x1=6.4433e-05 r0=0.000716 x0=0.000257 Normamps=250.2 length=17.0 units=m
New Line.307660900 Bus1=MT9305767 Bus2=MT8308628 phases=3 r1=0.0002385 x1=6.4433e-05 r0=0.000716 x0=0.000257 Normamps=250.2 length=20.0 units=m
New Line.4500108406 Bus1=MT9305713 Bus2=MT8308631 phases=3 r1=0.0002385 x1=6.4433e-05 r0=0.000716 x0=0.000257 Normamps=250.2 length=22.0 units=m
New Line.4500109893 Bus1=MT10702463 Bus2=MT13176297 phases=3 r1=0.0002385 x1=6.4433e-05 r0=0.000716 x0=0.000257 Normamps=250.2 length=17.0 units=m
New Line.307661100 Bus1=MT9305762 Bus2=MT9305757 phases=3 r1=0.0002385 x1=6.4433e-05 r0=0.000716 x0=0.000257 Normamps=250.2 length=18.0 units=m
New Line.307661200 Bus1=MT9305757 Bus2=MT9305752 phases=3 r1=0.0002385 x1=6.4433e-05 r0=0.000716 x0=0.000257 Normamps=250.2 length=18.0 units=m
New Line.307661300 Bus1=MT9305752 Bus2=MT8308623 phases=3 r1=0.0002385 x1=6.4433e-05 r0=0.000716 x0=0.000257 Normamps=250.2 length=18.0 units=m
New Line.641891500 Bus1=MT10888890 Bus2=MT10888887 phases=3 r1=0.0002385 x1=6.4433e-05 r0=0.000716 x0=0.000257 Normamps=250.2 length=28.0 units=m
New Line.641891600 Bus1=MT10888887 Bus2=MT10888884 phases=3 r1=0.0002385 x1=6.4433e-05 r0=0.000716 x0=0.000257 Normamps=250.2 length=28.0 units=m
New Line.321177000 Bus1=MT8714489 Bus2=MT9305767 phases=3 r1=0.0002385 x1=6.4433e-05 r0=0.000716 x0=0.000257 Normamps=250.2 length=7.0 units=m
New Line.307653200 Bus1=MT8308615 Bus2=MT9305699 phases=3 r1=0.0002385 x1=6.4433e-05 r0=0.000716 x0=0.000257 Normamps=250.2 length=36.0 units=m
New Line.307653300 Bus1=MT9305699 Bus2=MT9305747 phases=3 r1=0.0002385 x1=6.4433e-05 r0=0.000716 x0=0.000257 Normamps=250.2 length=42.0 units=m
New Line.307653400 Bus1=MT9305747 Bus2=MT111755812 phases=3 r1=0.0002385 x1=6.4433e-05 r0=0.000716 x0=0.000257 Normamps=250.2 length=36.0 units=m
New Line.641891400 Bus1=MT10888840 Bus2=MT10888890 phases=3 r1=0.0002385 x1=6.4433e-05 r0=0.000716 x0=0.000257 Normamps=250.2 length=23.0 units=m
New Line.641891300 Bus1=MT8341721 Bus2=MT10888840 phases=3 r1=0.0002385 x1=6.4433e-05 r0=0.000716 x0=0.000257 Normamps=250.2 length=23.0 units=m
New Line.2574950500 Bus1=MT14524103 Bus2=MT5663430 phases=3 r1=0.0002385 x1=6.4433e-05 r0=0.000716 x0=0.000257 Normamps=250.2 length=21.0 units=m
New Line.641874100 Bus1=MT10051717 Bus2=MT10888925 phases=3 r1=0.0002385 x1=6.4433e-05 r0=0.000716 x0=0.000257 Normamps=250.2 length=34.0 units=m
New Line.641874000 Bus1=MT10888928 Bus2=MT10051717 phases=3 r1=0.0002385 x1=6.4433e-05 r0=0.000716 x0=0.000257 Normamps=250.2 length=28.0 units=m
New Line.687170200 Bus1=MT11315685 Bus2=MT11316222 phases=3 r1=0.0002385 x1=6.4433e-05 r0=0.000716 x0=0.000257 Normamps=250.2 length=43.0 units=m
New Line.687170000 Bus1=MT11316222 Bus2=MT11316229 phases=3 r1=0.0002385 x1=6.4433e-05 r0=0.000716 x0=0.000257 Normamps=250.2 length=39.0 units=m
New Line.687169300 Bus1=MT11316229 Bus2=MT11316310 phases=3 r1=0.0002385 x1=6.4433e-05 r0=0.000716 x0=0.000257 Normamps=250.2 length=33.0 units=m
New Line.662683200 Bus1=MT11315061 Bus2=MT11315056 phases=3 r1=0.0002385 x1=6.4433e-05 r0=0.000716 x0=0.000257 Normamps=250.2 length=32.0 units=m
New Line.307654600 Bus1=MT9305735 Bus2=MT9305730 phases=3 r1=0.0002385 x1=6.4433e-05 r0=0.000716 x0=0.000257 Normamps=250.2 length=29.0 units=m
New Line.17989800 Bus1=MT5561969 Bus2=MT5206551 phases=3 r1=0.0002385 x1=6.4433e-05 r0=0.000716 x0=0.000257 Normamps=250.2 length=17.0 units=m
New Line.17989700 Bus1=MT5561969 Bus2=MT5654249 phases=3 r1=0.0002385 x1=6.4433e-05 r0=0.000716 x0=0.000257 Normamps=250.2 length=42.0 units=m
New Line.17989600 Bus1=MT5663430 Bus2=MT5561969 phases=3 r1=0.0002385 x1=6.4433e-05 r0=0.000716 x0=0.000257 Normamps=250.2 length=39.0 units=m
New Line.307659700 Bus1=MT9305694 Bus2=MT9305687 phases=3 r1=0.0002385 x1=6.4433e-05 r0=0.000716 x0=0.000257 Normamps=250.2 length=28.0 units=m
New Line.584778500 Bus1=MT5092704 Bus2=MT10702463 phases=3 r1=0.0002385 x1=6.4433e-05 r0=0.000716 x0=0.000257 Normamps=250.2 length=19.0 units=m
New Line.307659800 Bus1=MT9305687 Bus2=MT8308615 phases=3 r1=0.0002385 x1=6.4433e-05 r0=0.000716 x0=0.000257 Normamps=250.2 length=24.0 units=m
New Line.17989900 Bus1=MT5206551 Bus2=MT4507603 phases=3 r1=0.0002385 x1=6.4433e-05 r0=0.000716 x0=0.000257 Normamps=250.2 length=33.0 units=m
New Line.307654300 Bus1=MT8308601 Bus2=MT9305740 phases=3 r1=0.0002385 x1=6.4433e-05 r0=0.000716 x0=0.000257 Normamps=250.2 length=19.0 units=m
New Line.307654200 Bus1=MT9305740 Bus2=MT8308596 phases=3 r1=0.0002385 x1=6.4433e-05 r0=0.000716 x0=0.000257 Normamps=250.2 length=21.0 units=m
New Line.307654100 Bus1=MT9305740 Bus2=MT9305787 phases=3 r1=0.0002385 x1=6.4433e-05 r0=0.000716 x0=0.000257 Normamps=250.2 length=35.0 units=m
New Line.307654000 Bus1=MT9305787 Bus2=MT9305725 phases=3 r1=0.0002385 x1=6.4433e-05 r0=0.000716 x0=0.000257 Normamps=250.2 length=25.0 units=m
New Line.307653900 Bus1=MT9305725 Bus2=MT9305718 phases=3 r1=0.0002385 x1=6.4433e-05 r0=0.000716 x0=0.000257 Normamps=250.2 length=14.0 units=m
New Line.307653800 Bus1=MT9305718 Bus2=MT9305746 phases=3 r1=0.0002385 x1=6.4433e-05 r0=0.000716 x0=0.000257 Normamps=250.2 length=16.0 units=m
New Line.321177100 Bus1=MT8714489 Bus2=MT9305762 phases=3 r1=0.0002385 x1=6.4433e-05 r0=0.000716 x0=0.000257 Normamps=250.2 length=14.0 units=m
New Line.641891700 Bus1=MT10888884 Bus2=MT10888881 phases=3 r1=0.0002385 x1=6.4433e-05 r0=0.000716 x0=0.000257 Normamps=250.2 length=28.0 units=m
New Line.1488598600 Bus1=MT10702463 Bus2=MT13176301 phases=3 r1=0.0002385 x1=6.4433e-05 r0=0.000716 x0=0.000257 Normamps=250.2 length=9.0 units=m
New Line.641873900 Bus1=MT10888931 Bus2=MT10888928 phases=3 r1=0.0002385 x1=6.4433e-05 r0=0.000716 x0=0.000257 Normamps=250.2 length=30.0 units=m
New Line.641873800 Bus1=MT10888934 Bus2=MT10888931 phases=3 r1=0.0002385 x1=6.4433e-05 r0=0.000716 x0=0.000257 Normamps=250.2 length=29.0 units=m
New Line.641873700 Bus1=MT10888937 Bus2=MT10888934 phases=3 r1=0.0002385 x1=6.4433e-05 r0=0.000716 x0=0.000257 Normamps=250.2 length=27.0 units=m
New Line.641873600 Bus1=MT8308596 Bus2=MT10888937 phases=3 r1=0.0002385 x1=6.4433e-05 r0=0.000716 x0=0.000257 Normamps=250.2 length=28.0 units=m
New Line.662680400 Bus1=MT11315026 Bus2=MT11315694 phases=3 r1=0.0002385 x1=6.4433e-05 r0=0.000716 x0=0.000257 Normamps=250.2 length=26.0 units=m
New Line.662680700 Bus1=MT11315113 Bus2=MT11315032 phases=3 r1=0.0002385 x1=6.4433e-05 r0=0.000716 x0=0.000257 Normamps=250.2 length=20.0 units=m
New Line.662680800 Bus1=MT11315032 Bus2=MT11315035 phases=3 r1=0.0002385 x1=6.4433e-05 r0=0.000716 x0=0.000257 Normamps=250.2 length=23.0 units=m
New Line.18799700 Bus1=MT5447684 Bus2=MT4968988 phases=3 r1=0.0002385 x1=6.4433e-05 r0=0.000716 x0=0.000257 Normamps=250.2 length=33.0 units=m
New Line.687394000 Bus1=MT9306062 Bus2=MT11453406 phases=3 r1=0.0002385 x1=6.4433e-05 r0=0.000716 x0=0.000257 Normamps=250.2 length=44.0 units=m
New Line.370260000 Bus1=MT9145904 Bus2=MT9134992 phases=3 r1=0.0002385 x1=6.4433e-05 r0=0.000716 x0=0.000257 Normamps=250.2 length=19.0 units=m
New Line.370259900 Bus1=MT9145904 Bus2=MT9135270 phases=3 r1=0.0002385 x1=6.4433e-05 r0=0.000716 x0=0.000257 Normamps=250.2 length=22.0 units=m
New Line.370259800 Bus1=MT17980525 Bus2=MT9145904 phases=3 r1=0.0002385 x1=6.4433e-05 r0=0.000716 x0=0.000257 Normamps=250.2 length=17.0 units=m
New Line.370259700 Bus1=MT9145904 Bus2=MT9145883 phases=3 r1=0.0002385 x1=6.4433e-05 r0=0.000716 x0=0.000257 Normamps=250.2 length=6.0 units=m
New Line.370259500 Bus1=MT9145885 Bus2=MT9147942 phases=3 r1=0.0002385 x1=6.4433e-05 r0=0.000716 x0=0.000257 Normamps=250.2 length=30.0 units=m
New Line.370259200 Bus1=MT9145883 Bus2=MT9145884 phases=3 r1=0.0002385 x1=6.4433e-05 r0=0.000716 x0=0.000257 Normamps=250.2 length=24.0 units=m
New Line.370259100 Bus1=MT9145884 Bus2=MT9145885 phases=3 r1=0.0002385 x1=6.4433e-05 r0=0.000716 x0=0.000257 Normamps=250.2 length=31.0 units=m
New Line.460792300 Bus1=MT9135848 Bus2=MT9135781 phases=3 r1=0.0002385 x1=6.4433e-05 r0=0.000716 x0=0.000257 Normamps=250.2 length=18.0 units=m
New Line.469999700 Bus1=MT9272971 Bus2=MT9207017 phases=3 r1=0.0002385 x1=6.4433e-05 r0=0.000716 x0=0.000257 Normamps=250.2 length=36.0 units=m
New Line.465738300 Bus1=MT9268877 Bus2=MT9207012 phases=3 r1=0.0002385 x1=6.4433e-05 r0=0.000716 x0=0.000257 Normamps=250.2 length=25.0 units=m
New Line.362052300 Bus1=MT9135263 Bus2=MT9135158 phases=3 r1=0.0002385 x1=6.4433e-05 r0=0.000716 x0=0.000257 Normamps=250.2 length=16.0 units=m
New Line.358714900 Bus1=MT9135194 Bus2=MT9134996 phases=3 r1=0.0002385 x1=6.4433e-05 r0=0.000716 x0=0.000257 Normamps=250.2 length=30.0 units=m
New Line.323544200 Bus1=MT8926150 Bus2=MT8953323 phases=3 r1=0.0002385 x1=6.4433e-05 r0=0.000716 x0=0.000257 Normamps=250.2 length=34.0 units=m
New Line.323543100 Bus1=MT8953323 Bus2=MT8953462 phases=3 r1=0.0002385 x1=6.4433e-05 r0=0.000716 x0=0.000257 Normamps=250.2 length=29.0 units=m
New Line.358708800 Bus1=MT9134985 Bus2=MT9135194 phases=3 r1=0.0002385 x1=6.4433e-05 r0=0.000716 x0=0.000257 Normamps=250.2 length=30.0 units=m
New Line.358708500 Bus1=MT9134992 Bus2=MT9134985 phases=3 r1=0.0002385 x1=6.4433e-05 r0=0.000716 x0=0.000257 Normamps=250.2 length=30.0 units=m
New Line.358707900 Bus1=MT30541034 Bus2=MT9135052 phases=3 r1=0.0002385 x1=6.4433e-05 r0=0.000716 x0=0.000257 Normamps=250.2 length=31.0 units=m
New Line.323521000 Bus1=MT8926155 Bus2=MT81295227 phases=3 r1=0.0002385 x1=6.4433e-05 r0=0.000716 x0=0.000257 Normamps=250.2 length=21.0 units=m
New Line.358740200 Bus1=MT9134849 Bus2=MT9135263 phases=3 r1=0.0002385 x1=6.4433e-05 r0=0.000716 x0=0.000257 Normamps=250.2 length=28.0 units=m
New Line.323520300 Bus1=MT8926288 Bus2=MT8926155 phases=3 r1=0.0002385 x1=6.4433e-05 r0=0.000716 x0=0.000257 Normamps=250.2 length=40.0 units=m
New Line.358740000 Bus1=MT9135246 Bus2=MT9134849 phases=3 r1=0.0002385 x1=6.4433e-05 r0=0.000716 x0=0.000257 Normamps=250.2 length=24.0 units=m
New Line.323518800 Bus1=MT8926086 Bus2=MT8926104 phases=3 r1=0.0002385 x1=6.4433e-05 r0=0.000716 x0=0.000257 Normamps=250.2 length=34.0 units=m
New Line.323518100 Bus1=MT8926083 Bus2=MT8926086 phases=3 r1=0.0002385 x1=6.4433e-05 r0=0.000716 x0=0.000257 Normamps=250.2 length=30.0 units=m
New Line.358738300 Bus1=MT9135263 Bus2=MT9135258 phases=3 r1=0.0002385 x1=6.4433e-05 r0=0.000716 x0=0.000257 Normamps=250.2 length=33.0 units=m
New Line.323517400 Bus1=MT8926123 Bus2=MT8926083 phases=3 r1=0.0002385 x1=6.4433e-05 r0=0.000716 x0=0.000257 Normamps=250.2 length=36.0 units=m
New Line.323516600 Bus1=MT8279712 Bus2=MT8926123 phases=3 r1=0.0002385 x1=6.4433e-05 r0=0.000716 x0=0.000257 Normamps=250.2 length=25.0 units=m
New Line.507217300 Bus1=MT10244297 Bus2=MT10244298 phases=3 r1=0.0002385 x1=6.4433e-05 r0=0.000716 x0=0.000257 Normamps=250.2 length=36.0 units=m
New Line.17504100 Bus1=MT13902955 Bus2=MT3649122 phases=3 r1=0.0002385 x1=6.4433e-05 r0=0.000716 x0=0.000257 Normamps=250.2 length=35.0 units=m
New Line.649025900 Bus1=MT11108490 Bus2=MT11108485 phases=3 r1=0.0002385 x1=6.4433e-05 r0=0.000716 x0=0.000257 Normamps=250.2 length=35.0 units=m
New Line.649026400 Bus1=MT11108485 Bus2=MT11108479 phases=3 r1=0.0002385 x1=6.4433e-05 r0=0.000716 x0=0.000257 Normamps=250.2 length=32.0 units=m
New Line.649026900 Bus1=MT11108479 Bus2=MT11108456 phases=3 r1=0.0002385 x1=6.4433e-05 r0=0.000716 x0=0.000257 Normamps=250.2 length=35.0 units=m
New Line.649027400 Bus1=MT11108456 Bus2=MT11108450 phases=3 r1=0.0002385 x1=6.4433e-05 r0=0.000716 x0=0.000257 Normamps=250.2 length=43.0 units=m
New Line.649027900 Bus1=MT11108450 Bus2=MT11108444 phases=3 r1=0.0002385 x1=6.4433e-05 r0=0.000716 x0=0.000257 Normamps=250.2 length=21.0 units=m
New Line.1485723000 Bus1=MT8506394 Bus2=MT8506388 phases=3 r1=0.0002385 x1=6.4433e-05 r0=0.000716 x0=0.000257 Normamps=250.2 length=26.0 units=m
New Line.1935107500 Bus1=MT13706338 Bus2=MT13706335 phases=3 r1=0.0002385 x1=6.4433e-05 r0=0.000716 x0=0.000257 Normamps=250.2 length=13.0 units=m
New Line.1957120400 Bus1=MT13748149 Bus2=MT10479748 phases=3 r1=0.0002385 x1=6.4433e-05 r0=0.000716 x0=0.000257 Normamps=250.2 length=17.0 units=m
New Line.2153549600 Bus1=MT13942419 Bus2=MT14031513 phases=3 r1=0.0002385 x1=6.4433e-05 r0=0.000716 x0=0.000257 Normamps=250.2 length=17.0 units=m
New Line.649028500 Bus1=MT11108444 Bus2=MT11108469 phases=3 r1=0.0002385 x1=6.4433e-05 r0=0.000716 x0=0.000257 Normamps=250.2 length=41.0 units=m
New Line.649029200 Bus1=MT11108469 Bus2=MT11108476 phases=3 r1=0.0002385 x1=6.4433e-05 r0=0.000716 x0=0.000257 Normamps=250.2 length=37.0 units=m
New Line.3612526800 Bus1=MT18262149 Bus2=MT18160067 phases=3 r1=0.0002385 x1=6.4433e-05 r0=0.000716 x0=0.000257 Normamps=250.2 length=40.0 units=m
New Line.649030200 Bus1=MT11108461 Bus2=MT11147100 phases=3 r1=0.0002385 x1=6.4433e-05 r0=0.000716 x0=0.000257 Normamps=250.2 length=50.0 units=m
New Line.649030900 Bus1=MT11108495 Bus2=MT11108490 phases=3 r1=0.0002385 x1=6.4433e-05 r0=0.000716 x0=0.000257 Normamps=250.2 length=31.0 units=m
New Line.649040400 Bus1=MT11151626 Bus2=MT11108461 phases=3 r1=0.0002385 x1=6.4433e-05 r0=0.000716 x0=0.000257 Normamps=250.2 length=21.0 units=m
New Line.649040500 Bus1=MT11151626 Bus2=MT11108495 phases=3 r1=0.0002385 x1=6.4433e-05 r0=0.000716 x0=0.000257 Normamps=250.2 length=16.0 units=m
New Line.649040600 Bus1=MT4764808 Bus2=MT11151626 phases=3 r1=0.0002385 x1=6.4433e-05 r0=0.000716 x0=0.000257 Normamps=250.2 length=24.0 units=m
New Line.649040700 Bus1=MT11151626 Bus2=MT85648333 phases=3 r1=0.0002385 x1=6.4433e-05 r0=0.000716 x0=0.000257 Normamps=250.2 length=10.0 units=m
New Line.661165800 Bus1=MT11285491 Bus2=MT11292322 phases=3 r1=0.0002385 x1=6.4433e-05 r0=0.000716 x0=0.000257 Normamps=250.2 length=24.0 units=m
New Line.661165900 Bus1=MT11292322 Bus2=MT11285487 phases=3 r1=0.0002385 x1=6.4433e-05 r0=0.000716 x0=0.000257 Normamps=250.2 length=52.0 units=m
New Line.661166100 Bus1=MT11285478 Bus2=MT11285496 phases=3 r1=0.0002385 x1=6.4433e-05 r0=0.000716 x0=0.000257 Normamps=250.2 length=33.0 units=m
New Line.661167500 Bus1=MT11285478 Bus2=MT11285491 phases=3 r1=0.0002385 x1=6.4433e-05 r0=0.000716 x0=0.000257 Normamps=250.2 length=16.0 units=m
New Line.3785113700 Bus1=MT41934636 Bus2=MT41934646 phases=3 r1=0.0002385 x1=6.4433e-05 r0=0.000716 x0=0.000257 Normamps=250.2 length=16.0 units=m
New Line.3785113500 Bus1=MT41934650 Bus2=MT41934654 phases=3 r1=0.0002385 x1=6.4433e-05 r0=0.000716 x0=0.000257 Normamps=250.2 length=45.0 units=m
New Line.3785113400 Bus1=MT41934646 Bus2=MT41934650 phases=3 r1=0.0002385 x1=6.4433e-05 r0=0.000716 x0=0.000257 Normamps=250.2 length=39.0 units=m
New Line.762527700 Bus1=MT113988556 Bus2=MT12228081 phases=3 r1=0.0002385 x1=6.4433e-05 r0=0.000716 x0=0.000257 Normamps=250.2 length=32.0 units=m
New Line.762527800 Bus1=MT12228081 Bus2=MT5026033 phases=3 r1=0.0002385 x1=6.4433e-05 r0=0.000716 x0=0.000257 Normamps=250.2 length=31.0 units=m
New Line.3773612700 Bus1=MT37093080 Bus2=MT8308605 phases=3 r1=0.0002385 x1=6.4433e-05 r0=0.000716 x0=0.000257 Normamps=250.2 length=20.0 units=m
New Line.3773612500 Bus1=MT8308609 Bus2=MT37093080 phases=3 r1=0.0002385 x1=6.4433e-05 r0=0.000716 x0=0.000257 Normamps=250.2 length=20.0 units=m
New Line.4500005762 Bus1=MT46161841 Bus2=MT46161866 phases=3 r1=0.0002385 x1=6.4433e-05 r0=0.000716 x0=0.000257 Normamps=250.2 length=23.0 units=m
New Line.4500005763 Bus1=MT46161866 Bus2=MT3683566 phases=3 r1=0.0002385 x1=6.4433e-05 r0=0.000716 x0=0.000257 Normamps=250.2 length=36.0 units=m
New Line.522860300 Bus1=MT9272977 Bus2=MT9148109 phases=3 r1=0.0002385 x1=6.4433e-05 r0=0.000716 x0=0.000257 Normamps=250.2 length=30.0 units=m
New Line.4500118454 Bus1=MT5149974 Bus2=MT46161607 phases=3 r1=0.0002385 x1=6.4433e-05 r0=0.000716 x0=0.000257 Normamps=250.2 length=17.0 units=m
New Line.4500118453 Bus1=MT46160697 Bus2=MT46160889 phases=3 r1=0.0002385 x1=6.4433e-05 r0=0.000716 x0=0.000257 Normamps=250.2 length=16.0 units=m
New Line.4500111746 Bus1=MT30624995 Bus2=MT69035170 phases=3 r1=0.0002385 x1=6.4433e-05 r0=0.000716 x0=0.000257 Normamps=250.2 length=11.0 units=m
New Line.2659758500 Bus1=MT14686493 Bus2=MT14826551 phases=3 r1=0.0002385 x1=6.4433e-05 r0=0.000716 x0=0.000257 Normamps=250.2 length=24.0 units=m
New Line.3589952000 Bus1=MT5724004 Bus2=MT17980571 phases=3 r1=0.0002385 x1=6.4433e-05 r0=0.000716 x0=0.000257 Normamps=250.2 length=34.0 units=m
New Line.2659758600 Bus1=MT13544586 Bus2=MT14686493 phases=3 r1=0.0002385 x1=6.4433e-05 r0=0.000716 x0=0.000257 Normamps=250.2 length=17.0 units=m
New Line.479375100 Bus1=MT10077177 Bus2=MT10077167 phases=3 r1=0.0002385 x1=6.4433e-05 r0=0.000716 x0=0.000257 Normamps=250.2 length=93.0 units=m
New Line.2747302800 Bus1=MT14826541 Bus2=MT3731054 phases=3 r1=0.0002385 x1=6.4433e-05 r0=0.000716 x0=0.000257 Normamps=250.2 length=16.0 units=m
New Line.2747302900 Bus1=MT16363820 Bus2=MT14826541 phases=3 r1=0.0002385 x1=6.4433e-05 r0=0.000716 x0=0.000257 Normamps=250.2 length=20.0 units=m
New Line.2778287200 Bus1=MT14855069 Bus2=MT14855064 phases=3 r1=0.0002385 x1=6.4433e-05 r0=0.000716 x0=0.000257 Normamps=250.2 length=21.0 units=m
New Line.2952250000 Bus1=MT11315029 Bus2=MT11315026 phases=3 r1=0.0002385 x1=6.4433e-05 r0=0.000716 x0=0.000257 Normamps=250.2 length=37.0 units=m
New Line.2952250100 Bus1=MT11315113 Bus2=MT11315029 phases=3 r1=0.0002385 x1=6.4433e-05 r0=0.000716 x0=0.000257 Normamps=250.2 length=32.0 units=m
New Line.836918300 Bus1=MT12484636 Bus2=MT12484633 phases=3 r1=0.0002385 x1=6.4433e-05 r0=0.000716 x0=0.000257 Normamps=250.2 length=39.0 units=m
New Line.836917000 Bus1=MT12484633 Bus2=MT12484627 phases=3 r1=0.0002385 x1=6.4433e-05 r0=0.000716 x0=0.000257 Normamps=250.2 length=21.0 units=m
New Line.479374900 Bus1=MT10077212 Bus2=MT10077206 phases=3 r1=0.0002385 x1=6.4433e-05 r0=0.000716 x0=0.000257 Normamps=250.2 length=24.0 units=m
New Line.479373800 Bus1=MT10077206 Bus2=MT10077199 phases=3 r1=0.0002385 x1=6.4433e-05 r0=0.000716 x0=0.000257 Normamps=250.2 length=26.0 units=m
New Line.307653100 Bus1=MT9305704 Bus2=MT9306062 phases=3 r1=0.0002385 x1=6.4433e-05 r0=0.000716 x0=0.000257 Normamps=250.2 length=59.0 units=m
New Line.479372900 Bus1=MT10077140 Bus2=MT10077212 phases=3 r1=0.0002385 x1=6.4433e-05 r0=0.000716 x0=0.000257 Normamps=250.2 length=67.0 units=m
New Line.479372600 Bus1=MT10077146 Bus2=MT10077140 phases=3 r1=0.0002385 x1=6.4433e-05 r0=0.000716 x0=0.000257 Normamps=250.2 length=50.0 units=m
New Line.4500111361 Bus1=MT9207024 Bus2=MT17122730 phases=3 r1=0.0002385 x1=6.4433e-05 r0=0.000716 x0=0.000257 Normamps=250.2 length=24.0 units=m
New Line.4500110810 Bus1=MT12168897 Bus2=MT14472678 phases=3 r1=0.0002385 x1=6.4433e-05 r0=0.000716 x0=0.000257 Normamps=250.2 length=37.0 units=m
New Line.307646700 Bus1=MT9305668 Bus2=MT9305704 phases=3 r1=0.0002385 x1=6.4433e-05 r0=0.000716 x0=0.000257 Normamps=250.2 length=50.0 units=m
New Line.465739200 Bus1=MT9268865 Bus2=MT9147954 phases=3 r1=0.0002385 x1=6.4433e-05 r0=0.000716 x0=0.000257 Normamps=250.2 length=28.0 units=m
New Line.370261900 Bus1=MT9207012 Bus2=MT9147978 phases=3 r1=0.0002385 x1=6.4433e-05 r0=0.000716 x0=0.000257 Normamps=250.2 length=16.0 units=m
New Line.479372200 Bus1=MT10077152 Bus2=MT10077146 phases=3 r1=0.0002385 x1=6.4433e-05 r0=0.000716 x0=0.000257 Normamps=250.2 length=25.0 units=m
New Line.479371800 Bus1=MT10077160 Bus2=MT10077152 phases=3 r1=0.0002385 x1=6.4433e-05 r0=0.000716 x0=0.000257 Normamps=250.2 length=73.0 units=m
New Line.122724000 Bus1=MT113989846 Bus2=MT8506394 phases=3 r1=0.0002385 x1=6.4433e-05 r0=0.000716 x0=0.000257 Normamps=250.2 length=19.0 units=m
New Line.18704100 Bus1=MT8485856 Bus2=MT30624995 phases=3 r1=0.0002385 x1=6.4433e-05 r0=0.000716 x0=0.000257 Normamps=250.2 length=10.0 units=m
New Line.18704000 Bus1=MT8485857 Bus2=MT8485858 phases=3 r1=0.0002385 x1=6.4433e-05 r0=0.000716 x0=0.000257 Normamps=250.2 length=41.0 units=m
New Line.18703900 Bus1=MT8485858 Bus2=MT8485859 phases=3 r1=0.0002385 x1=6.4433e-05 r0=0.000716 x0=0.000257 Normamps=250.2 length=35.0 units=m
New Line.354168300 Bus1=MT9148029 Bus2=MT9148002 phases=3 r1=0.0002385 x1=6.4433e-05 r0=0.000716 x0=0.000257 Normamps=250.2 length=34.0 units=m
New Line.370261800 Bus1=MT9207012 Bus2=MT9272976 phases=3 r1=0.0002385 x1=6.4433e-05 r0=0.000716 x0=0.000257 Normamps=250.2 length=17.0 units=m
New Line.354167500 Bus1=MT9148036 Bus2=MT9148029 phases=3 r1=0.0002385 x1=6.4433e-05 r0=0.000716 x0=0.000257 Normamps=250.2 length=38.0 units=m
New Line.370261700 Bus1=MT9207012 Bus2=MT9147951 phases=3 r1=0.0002385 x1=6.4433e-05 r0=0.000716 x0=0.000257 Normamps=250.2 length=23.0 units=m
New Line.18703700 Bus1=MT8523103 Bus2=MT8485857 phases=3 r1=0.0002385 x1=6.4433e-05 r0=0.000716 x0=0.000257 Normamps=250.2 length=40.0 units=m
New Line.18703600 Bus1=MT8485859 Bus2=MT12658099 phases=3 r1=0.0002385 x1=6.4433e-05 r0=0.000716 x0=0.000257 Normamps=250.2 length=30.0 units=m
New Line.3260794100 Bus1=MT8279722 Bus2=MT8279712 phases=3 r1=0.0002385 x1=6.4433e-05 r0=0.000716 x0=0.000257 Normamps=250.2 length=22.0 units=m
New Line.3260794000 Bus1=MT8279722 Bus2=MT8485856 phases=3 r1=0.0002385 x1=6.4433e-05 r0=0.000716 x0=0.000257 Normamps=250.2 length=16.0 units=m
New Line.370261400 Bus1=MT9147978 Bus2=MT9272971 phases=3 r1=0.0002385 x1=6.4433e-05 r0=0.000716 x0=0.000257 Normamps=250.2 length=33.0 units=m
New Line.370261200 Bus1=MT9207017 Bus2=MT9272920 phases=3 r1=0.0002385 x1=6.4433e-05 r0=0.000716 x0=0.000257 Normamps=250.2 length=44.0 units=m
New Line.354164500 Bus1=MT9148109 Bus2=MT9148348 phases=3 r1=0.0002385 x1=6.4433e-05 r0=0.000716 x0=0.000257 Normamps=250.2 length=39.0 units=m
New Line.4500218262 Bus1=MT81295227 Bus2=MT8926150 phases=3 r1=0.0002385 x1=6.4433e-05 r0=0.000716 x0=0.000257 Normamps=250.2 length=11.0 units=m
New Line.4500218264 Bus1=MT8926150 Bus2=MT81296779 phases=3 r1=0.0002385 x1=6.4433e-05 r0=0.000716 x0=0.000257 Normamps=250.2 length=23.0 units=m
New Line.18703500 Bus1=MT12658099 Bus2=MT5404577 phases=3 r1=0.0002385 x1=6.4433e-05 r0=0.000716 x0=0.000257 Normamps=250.2 length=44.0 units=m
New Line.18703400 Bus1=MT5436966 Bus2=MT5645690 phases=3 r1=0.0002385 x1=6.4433e-05 r0=0.000716 x0=0.000257 Normamps=250.2 length=35.0 units=m
New Line.18703300 Bus1=MT5645690 Bus2=MT5430180 phases=3 r1=0.0002385 x1=6.4433e-05 r0=0.000716 x0=0.000257 Normamps=250.2 length=29.0 units=m
New Line.18697400 Bus1=MT4968743 Bus2=MT5577518 phases=3 r1=0.0002385 x1=6.4433e-05 r0=0.000716 x0=0.000257 Normamps=250.2 length=37.0 units=m
New Line.18697300 Bus1=MT5654252 Bus2=MT5436966 phases=3 r1=0.0002385 x1=6.4433e-05 r0=0.000716 x0=0.000257 Normamps=250.2 length=31.0 units=m
New Line.18697200 Bus1=MT5430180 Bus2=MT4968743 phases=3 r1=0.0002385 x1=6.4433e-05 r0=0.000716 x0=0.000257 Normamps=250.2 length=35.0 units=m
New Line.18695900 Bus1=MT5722426 Bus2=MT5654828 phases=3 r1=0.0002385 x1=6.4433e-05 r0=0.000716 x0=0.000257 Normamps=250.2 length=34.0 units=m
New Line.18695800 Bus1=MT5654828 Bus2=MT3971462 phases=3 r1=0.0002385 x1=6.4433e-05 r0=0.000716 x0=0.000257 Normamps=250.2 length=30.0 units=m
New Line.601125600 Bus1=MT10833801 Bus2=MT10833827 phases=3 r1=0.0002385 x1=6.4433e-05 r0=0.000716 x0=0.000257 Normamps=250.2 length=49.0 units=m
New Line.18695700 Bus1=MT5404577 Bus2=MT5598047 phases=3 r1=0.0002385 x1=6.4433e-05 r0=0.000716 x0=0.000257 Normamps=250.2 length=37.0 units=m
New Line.601127500 Bus1=MT10833827 Bus2=MT10833822 phases=3 r1=0.0002385 x1=6.4433e-05 r0=0.000716 x0=0.000257 Normamps=250.2 length=41.0 units=m
New Line.465738400 Bus1=MT9147954 Bus2=MT9268877 phases=3 r1=0.0002385 x1=6.4433e-05 r0=0.000716 x0=0.000257 Normamps=250.2 length=37.0 units=m
New Line.460792600 Bus1=MT9135052 Bus2=MT9135848 phases=3 r1=0.0002385 x1=6.4433e-05 r0=0.000716 x0=0.000257 Normamps=250.2 length=16.0 units=m
New Line.18684100 Bus1=MT5598047 Bus2=MT3671661 phases=3 r1=0.0002385 x1=6.4433e-05 r0=0.000716 x0=0.000257 Normamps=250.2 length=47.0 units=m
New Line.470000700 Bus1=MT9272920 Bus2=MT9207024 phases=3 r1=0.0002385 x1=6.4433e-05 r0=0.000716 x0=0.000257 Normamps=250.2 length=37.0 units=m
New Line.18683900 Bus1=MT3971462 Bus2=MT3831011 phases=3 r1=0.0002385 x1=6.4433e-05 r0=0.000716 x0=0.000257 Normamps=250.2 length=25.0 units=m
New Line.18683800 Bus1=MT5578837 Bus2=MT5722426 phases=3 r1=0.0002385 x1=6.4433e-05 r0=0.000716 x0=0.000257 Normamps=250.2 length=37.0 units=m
New Line.18683700 Bus1=MT5569691 Bus2=MT5578837 phases=3 r1=0.0002385 x1=6.4433e-05 r0=0.000716 x0=0.000257 Normamps=250.2 length=42.0 units=m
New Line.18683600 Bus1=MT5724362 Bus2=MT5569691 phases=3 r1=0.0002385 x1=6.4433e-05 r0=0.000716 x0=0.000257 Normamps=250.2 length=39.0 units=m
New Line.18683500 Bus1=MT5528903 Bus2=MT5724362 phases=3 r1=0.0002385 x1=6.4433e-05 r0=0.000716 x0=0.000257 Normamps=250.2 length=38.0 units=m
New Line.18683100 Bus1=MT8657298 Bus2=MT8657295 phases=3 r1=0.0002385 x1=6.4433e-05 r0=0.000716 x0=0.000257 Normamps=250.2 length=27.0 units=m