New Load.load_3525402 bus1=bt3387747_ld phases=3 kV=0.400 kW=24.000 pf=0.95
New Load.load_3525501 bus1=bt3554383_ld phases=3 kV=0.400 kW=12.000 pf=0.95
New Load.load_3525601 bus1=bt3752733_ld phases=3 kV=0.400 kW=8.000 pf=0.95
New Load.load_3545201 bus1=bt3443042_ld phases=3 kV=0.400 kW=20.000 pf=0.95
New Load.load_3558201 bus1=bt22039475_ld phases=3 kV=0.400 kW=24.000 pf=0.95
New Load.load_3765601 bus1=bt26347791_ld phases=3 kV=0.400 kW=20.000 pf=0.95
New Load.load_3776201 bus1=bt4239412_ld phases=3 kV=0.400 kW=20.000 pf=0.95
New Load.load_3789701 bus1=bt9192015_ld phases=3 kV=0.400 kW=16.000 pf=0.95
New Load.load_3789901 bus1=bt9191966_ld phases=3 kV=0.400 kW=16.000 pf=0.95
New Load.load_3790801 bus1=bt9192003_ld phases=3 kV=0.400 kW=16.000 pf=0.95
New Load.load_3793701 bus1=bt9191958_ld phases=3 kV=0.400 kW=24.000 pf=0.95
New Load.load_3793901 bus1=bt9192008_ld phases=3 kV=0.400 kW=24.000 pf=0.95
New Load.load_3794001 bus1=bt9191969_ld phases=3 kV=0.400 kW=24.000 pf=0.95
New Load.load_3815702 bus1=bt9135780_ld phases=3 kV=0.400 kW=40.000 pf=0.95
New Load.load_3815801 bus1=bt9135259_ld phases=3 kV=0.400 kW=24.000 pf=0.95
New Load.load_3821901 bus1=bt10051718_ld phases=3 kV=0.400 kW=40.000 pf=0.95
New Load.load_3822001 bus1=bt10888872_ld phases=3 kV=0.400 kW=40.000 pf=0.95
New Load.load_3845301 bus1=bt38359051_ld phases=3 kV=0.400 kW=12.000 pf=0.95
New Load.load_3853701 bus1=bt11315047_ld phases=3 kV=0.400 kW=40.000 pf=0.95
New Load.load_3853801 bus1=bt11316311_ld phases=3 kV=0.400 kW=40.000 pf=0.95
New Load.load_3921701 bus1=bt9191995_ld phases=3 kV=0.400 kW=24.000 pf=0.95
New Load.load_3921801 bus1=bt9192012_ld phases=3 kV=0.400 kW=24.000 pf=0.95
New Load.load_3921901 bus1=bt8926662_ld phases=3 kV=0.400 kW=16.000 pf=0.95
New Load.load_4102101 bus1=bt38359103_ld phases=3 kV=0.400 kW=4.000 pf=0.95
New Load.load_4102201 bus1=bt38359126_ld phases=3 kV=0.400 kW=4.000 pf=0.95
New Load.load_4106002 bus1=bt38359228_ld phases=3 kV=0.400 kW=4.000 pf=0.95
New Load.load_4111701 bus1=bt38359352_ld phases=3 kV=0.400 kW=12.000 pf=0.95
New Load.load_4500508860 bus1=bt104431854_ld phases=3 kV=0.400 kW=8.000 pf=0.95
New Load.load_4500658299 bus1=bt18262150_ld phases=3 kV=0.400 kW=8.000 pf=0.95
New Load.load_4501031500 bus1=bt3395435_ld phases=3 kV=0.400 kW=12.000 pf=0.95
New Load.load_3526101 bus1=bt107717906_ld phases=3 kV=0.400 kW=120.000 pf=0.95
New Load.load_3514202 bus1=bt4393626_ld phases=3 kV=0.400 kW=120.000 pf=0.95
New Load.load_3514301 bus1=bt3003031_ld phases=3 kV=0.400 kW=60.000 pf=0.95
New Load.load_3514501 bus1=bt8633931_ld phases=3 kV=0.400 kW=240.000 pf=0.95
New Load.load_3514802 bus1=bt4412024_ld phases=3 kV=0.400 kW=160.000 pf=0.95
New Load.load_3514902 bus1=bt38359008_ld phases=3 kV=0.400 kW=320.000 pf=0.95
New Load.load_3515601 bus1=bt25333244_ld phases=3 kV=0.400 kW=60.000 pf=0.95
New Load.load_3518101 bus1=bt3114993_ld phases=3 kV=0.400 kW=120.000 pf=0.95
New Load.load_3521401 bus1=bt38359530_ld phases=3 kV=0.400 kW=36.000 pf=0.95
New Load.load_3525901 bus1=bt44264378_ld phases=3 kV=0.400 kW=60.000 pf=0.95
New Load.load_3526001 bus1=bt107713325_ld phases=3 kV=0.400 kW=60.000 pf=0.95
New Load.load_3526501 bus1=bt4088939_ld phases=3 kV=0.400 kW=60.000 pf=0.95
New Load.load_3526601 bus1=bt9136136_ld phases=3 kV=0.400 kW=160.000 pf=0.95
New Load.load_3527001 bus1=bt3614671_ld phases=3 kV=0.400 kW=80.000 pf=0.95
New Load.load_3527201 bus1=bt38359437_ld phases=3 kV=0.400 kW=240.000 pf=0.95
New Load.load_3527202 bus1=bt38359437_ld phases=3 kV=0.400 kW=400.000 pf=0.95
New Load.load_3527501 bus1=bt8698316_ld phases=3 kV=0.400 kW=160.000 pf=0.95
New Load.load_3527601 bus1=bt4219817_ld phases=3 kV=0.400 kW=160.000 pf=0.95
New Load.load_3528701 bus1=bt4763965_ld phases=3 kV=0.400 kW=60.000 pf=0.95
New Load.load_3528801 bus1=bt22024548_ld phases=3 kV=0.400 kW=24.000 pf=0.95
New Load.load_3528901 bus1=bt4198404_ld phases=3 kV=0.400 kW=24.000 pf=0.95
New Load.load_3530301 bus1=bt3268056_ld phases=3 kV=0.400 kW=60.000 pf=0.95
New Load.load_3538701 bus1=bt38358916_ld phases=3 kV=0.400 kW=24.000 pf=0.95
New Load.load_3549501 bus1=bt8522366_ld phases=3 kV=0.400 kW=36.000 pf=0.95
New Load.load_3551601 bus1=bt4401839_ld phases=3 kV=0.400 kW=80.000 pf=0.95
New Load.load_3553501 bus1=bt9010788_ld phases=3 kV=0.400 kW=80.000 pf=0.95
New Load.load_3558501 bus1=bt4678158_ld phases=3 kV=0.400 kW=60.000 pf=0.95
New Load.load_3558801 bus1=bt3530603_ld phases=3 kV=0.400 kW=36.000 pf=0.95
New Load.load_3558901 bus1=bt3530529_ld phases=3 kV=0.400 kW=60.000 pf=0.95
New Load.load_3559301 bus1=bt4653409_ld phases=3 kV=0.400 kW=60.000 pf=0.95
New Load.load_3559501 bus1=bt8435150_ld phases=3 kV=0.400 kW=160.000 pf=0.95
New Load.load_3565102 bus1=bt38359034_ld phases=3 kV=0.400 kW=400.000 pf=0.95
New Load.load_3565104 bus1=bt38359034_ld phases=3 kV=0.400 kW=480.000 pf=0.95
New Load.load_3565105 bus1=bt38359034_ld phases=3 kV=0.400 kW=400.000 pf=0.95
New Load.load_3766301 bus1=bt15843447_ld phases=3 kV=0.400 kW=60.000 pf=0.95
New Load.load_3776001 bus1=bt4315753_ld phases=3 kV=0.400 kW=60.000 pf=0.95
New Load.load_3776101 bus1=bt4810048_ld phases=3 kV=0.400 kW=60.000 pf=0.95
New Load.load_3777901 bus1=bt8485842_ld phases=3 kV=0.400 kW=60.000 pf=0.95
New Load.load_3785001 bus1=bt38359200_ld phases=3 kV=0.400 kW=240.000 pf=0.95
New Load.load_3787601 bus1=bt4496356_ld phases=3 kV=0.400 kW=60.000 pf=0.95
New Load.load_3788201 bus1=bt38361061_ld phases=3 kV=0.400 kW=120.000 pf=0.95
New Load.load_3788701 bus1=bt38358881_ld phases=3 kV=0.400 kW=80.000 pf=0.95
New Load.load_3788902 bus1=bt38359464_ld phases=3 kV=0.400 kW=24.000 pf=0.95
New Load.load_3789801 bus1=bt8926658_ld phases=3 kV=0.400 kW=60.000 pf=0.95
New Load.load_3802301 bus1=bt3603788_ld phases=3 kV=0.400 kW=60.000 pf=0.95
New Load.load_3806402 bus1=bt8953463_ld phases=3 kV=0.400 kW=24.000 pf=0.95
New Load.load_3815902 bus1=bt9135195_ld phases=3 kV=0.400 kW=60.000 pf=0.95
New Load.load_3816301 bus1=bt9148037_ld phases=3 kV=0.400 kW=60.000 pf=0.95
New Load.load_3817001 bus1=bt9307707_ld phases=3 kV=0.400 kW=60.000 pf=0.95
New Load.load_3817301 bus1=bt9272972_ld phases=3 kV=0.400 kW=80.000 pf=0.95
New Load.load_3817501 bus1=bt9268866_ld phases=3 kV=0.400 kW=80.000 pf=0.95
New Load.load_3835601 bus1=bt11315028_ld phases=3 kV=0.400 kW=36.000 pf=0.95
New Load.load_3840602 bus1=bt11108451_ld phases=3 kV=0.400 kW=60.000 pf=0.95
New Load.load_3844402 bus1=bt30264282_ld phases=3 kV=0.400 kW=36.000 pf=0.95
New Load.load_3847201 bus1=bt10833802_ld phases=3 kV=0.400 kW=120.000 pf=0.95
New Load.load_3857101 bus1=bt9135271_ld phases=3 kV=0.400 kW=24.000 pf=0.95
New Load.load_3865701 bus1=bt11763908_ld phases=3 kV=0.400 kW=80.000 pf=0.95
New Load.load_3867901 bus1=bt15843697_ld phases=3 kV=0.400 kW=60.000 pf=0.95
New Load.load_3881602 bus1=bt3215898_ld phases=3 kV=0.400 kW=36.000 pf=0.95
New Load.load_3883001 bus1=bt12531299_ld phases=3 kV=0.400 kW=60.000 pf=0.95
New Load.load_3883401 bus1=bt12658208_ld phases=3 kV=0.400 kW=36.000 pf=0.95
New Load.load_3884301 bus1=bt9306061_ld phases=3 kV=0.400 kW=12.000 pf=0.95
New Load.load_3886904 bus1=bt13265405_ld phases=3 kV=0.400 kW=60.000 pf=0.95
New Load.load_3887002 bus1=bt13265262_ld phases=3 kV=0.400 kW=36.000 pf=0.95
New Load.load_3897201 bus1=bt11285486_ld phases=3 kV=0.400 kW=60.000 pf=0.95
New Load.load_3918902 bus1=bt14502470_ld phases=3 kV=0.400 kW=60.000 pf=0.95
New Load.load_3919002 bus1=bt11285495_ld phases=3 kV=0.400 kW=36.000 pf=0.95
New Load.load_3922101 bus1=bt8705958_ld phases=3 kV=0.400 kW=36.000 pf=0.95
New Load.load_3922301 bus1=bt3497509_ld phases=3 kV=0.400 kW=80.000 pf=0.95
New Load.load_3925501 bus1=bt11992489_ld phases=3 kV=0.400 kW=80.000 pf=0.95
New Load.load_3925601 bus1=bt8506330_ld phases=3 kV=0.400 kW=36.000 pf=0.95
New Load.load_3925701 bus1=bt13681443_ld phases=3 kV=0.400 kW=60.000 pf=0.95
New Load.load_3927701 bus1=bt4951385_ld phases=3 kV=0.400 kW=60.000 pf=0.95
New Load.load_3935402 bus1=bt15176748_ld phases=3 kV=0.400 kW=60.000 pf=0.95
New Load.load_3935602 bus1=bt14686617_ld phases=3 kV=0.400 kW=60.000 pf=0.95
New Load.load_3944501 bus1=bt18160164_ld phases=3 kV=0.400 kW=80.000 pf=0.95
New Load.load_3947401 bus1=bt44192947_ld phases=3 kV=0.400 kW=240.000 pf=0.95
New Load.load_3949601 bus1=bt44193054_ld phases=3 kV=0.400 kW=160.000 pf=0.95
New Load.load_3952701 bus1=bt29003831_ld phases=3 kV=0.400 kW=80.000 pf=0.95
New Load.load_3965201 bus1=bt18261629_ld phases=3 kV=0.400 kW=80.000 pf=0.95
New Load.load_3968403 bus1=bt35995360_ld phases=3 kV=0.400 kW=36.000 pf=0.95
New Load.load_3983702 bus1=bt41934655_ld phases=3 kV=0.400 kW=36.000 pf=0.95
New Load.load_4102102 bus1=bt38359103_ld phases=3 kV=0.400 kW=1600.000 pf=0.95
New Load.load_4102205 bus1=bt38359126_ld phases=3 kV=0.400 kW=800.000 pf=0.95
New Load.load_4102206 bus1=bt38359126_ld phases=3 kV=0.400 kW=320.000 pf=0.95
New Load.load_4102207 bus1=bt38359126_ld phases=3 kV=0.400 kW=480.000 pf=0.95
New Load.load_4106001 bus1=bt38359228_ld phases=3 kV=0.400 kW=200.000 pf=0.95
New Load.load_4106101 bus1=bt38359249_ld phases=3 kV=0.400 kW=320.000 pf=0.95
New Load.load_4108601 bus1=bt38359288_ld phases=3 kV=0.400 kW=24.000 pf=0.95
New Load.load_4116102 bus1=bt38359492_ld phases=3 kV=0.400 kW=400.000 pf=0.95
New Load.load_4117701 bus1=bt38359398_ld phases=3 kV=0.400 kW=240.000 pf=0.95
New Load.load_4127301 bus1=bt38359312_ld phases=3 kV=0.400 kW=200.000 pf=0.95
New Load.load_4127901 bus1=bt38359510_ld phases=3 kV=0.400 kW=240.000 pf=0.95
New Load.load_4127902 bus1=bt38359510_ld phases=3 kV=0.400 kW=400.000 pf=0.95
New Load.load_4129301 bus1=bt38358964_ld phases=3 kV=0.400 kW=160.000 pf=0.95
New Load.load_4500055750 bus1=bt46596844_ld phases=3 kV=0.400 kW=60.000 pf=0.95
New Load.load_4500055829 bus1=bt44386927_ld phases=3 kV=0.400 kW=60.000 pf=0.95
New Load.load_4500055910 bus1=bt44386948_ld phases=3 kV=0.400 kW=60.000 pf=0.95
New Load.load_4500056098 bus1=bt44387379_ld phases=3 kV=0.400 kW=60.000 pf=0.95
New Load.load_4500062614 bus1=bt44914874_ld phases=3 kV=0.400 kW=120.000 pf=0.95
New Load.load_4500064108 bus1=bt69895632_ld phases=3 kV=0.400 kW=36.000 pf=0.95
New Load.load_4500116328 bus1=bt4430182_ld phases=3 kV=0.400 kW=60.000 pf=0.95
New Load.load_4500121063 bus1=bt12852859_ld phases=3 kV=0.400 kW=160.000 pf=0.95
New Load.load_4500121189 bus1=bt11980334_ld phases=3 kV=0.400 kW=60.000 pf=0.95
New Load.load_4500127926 bus1=bt73465128_ld phases=3 kV=0.400 kW=36.000 pf=0.95
New Load.load_4500128122 bus1=bt73465318_ld phases=3 kV=0.400 kW=60.000 pf=0.95
New Load.load_4500128177 bus1=bt73465308_ld phases=3 kV=0.400 kW=36.000 pf=0.95
New Load.load_4500139060 bus1=bt4567449_ld phases=3 kV=0.400 kW=60.000 pf=0.95
New Load.load_4500155009 bus1=bt76050777_ld phases=3 kV=0.400 kW=160.000 pf=0.95
New Load.load_4500157353 bus1=bt4021794_ld phases=3 kV=0.400 kW=160.000 pf=0.95
New Load.load_4500186001 bus1=bt15843485_ld phases=3 kV=0.400 kW=80.000 pf=0.95
New Load.load_4500218236 bus1=bt81295581_ld phases=3 kV=0.400 kW=80.000 pf=0.95
New Load.load_4500218237 bus1=bt81295581_ld phases=3 kV=0.400 kW=80.000 pf=0.95
New Load.load_4500218242 bus1=bt81296745_ld phases=3 kV=0.400 kW=80.000 pf=0.95
New Load.load_4500221462 bus1=bt81568044_ld phases=3 kV=0.400 kW=160.000 pf=0.95
New Load.load_4500221463 bus1=bt81568135_ld phases=3 kV=0.400 kW=160.000 pf=0.95
New Load.load_4500236986 bus1=bt80310978_ld phases=3 kV=0.400 kW=80.000 pf=0.95
New Load.load_4500236987 bus1=bt80311093_ld phases=3 kV=0.400 kW=60.000 pf=0.95
New Load.load_4500236988 bus1=bt80310765_ld phases=3 kV=0.400 kW=36.000 pf=0.95
New Load.load_4500236990 bus1=bt80310802_ld phases=3 kV=0.400 kW=80.000 pf=0.95
New Load.load_4500261692 bus1=bt78905641_ld phases=3 kV=0.400 kW=80.000 pf=0.95
New Load.load_4500262696 bus1=bt12168891_ld phases=3 kV=0.400 kW=60.000 pf=0.95
New Load.load_4500262698 bus1=bt78898039_ld phases=3 kV=0.400 kW=80.000 pf=0.95
New Load.load_4500263592 bus1=bt38361061_ld phases=3 kV=0.400 kW=240.000 pf=0.95
New Load.load_4500267180 bus1=bt14197993_ld phases=3 kV=0.400 kW=60.000 pf=0.95
New Load.load_4500267186 bus1=bt14197963_ld phases=3 kV=0.400 kW=60.000 pf=0.95
New Load.load_4500305908 bus1=bt8602399_ld phases=3 kV=0.400 kW=160.000 pf=0.95
New Load.load_4500322573 bus1=bt8633929_ld phases=3 kV=0.400 kW=240.000 pf=0.95
New Load.load_4500323902 bus1=bt4750135_ld phases=3 kV=0.400 kW=80.000 pf=0.95
New Load.load_4500335503 bus1=bt4654011_ld phases=3 kV=0.400 kW=60.000 pf=0.95
New Load.load_4500410081 bus1=bt3387741_ld phases=3 kV=0.400 kW=12.000 pf=0.95
New Load.load_4500447325 bus1=bt15350765_ld phases=3 kV=0.400 kW=60.000 pf=0.95
New Load.load_4500497691 bus1=bt103252990_ld phases=3 kV=0.400 kW=240.000 pf=0.95
New Load.load_4500508844 bus1=bt104448219_ld phases=3 kV=0.400 kW=60.000 pf=0.95
New Load.load_4500604699 bus1=bt108883001_ld phases=3 kV=0.400 kW=80.000 pf=0.95
New Load.load_4500796604 bus1=bt12531704_ld phases=3 kV=0.400 kW=60.000 pf=0.95
New Load.load_4500822353 bus1=bt3027274_ld phases=3 kV=0.400 kW=60.000 pf=0.95
New Load.load_4500144371 bus1=bt9136581_ld phases=3 kV=0.400 kW=20.000 pf=0.95
New Load.load_4500144345 bus1=bt9137176_ld phases=3 kV=0.400 kW=20.000 pf=0.95
New Load.load_4500142850 bus1=bt9137017_ld phases=3 kV=0.400 kW=12.000 pf=0.95
New Load.load_4500142843 bus1=bt9136934_ld phases=3 kV=0.400 kW=12.000 pf=0.95
New Load.load_4500144368 bus1=bt9136555_ld phases=3 kV=0.400 kW=20.000 pf=0.95
New Load.load_4500144324 bus1=bt9136677_ld phases=3 kV=0.400 kW=20.000 pf=0.95
New Load.load_4500144363 bus1=bt9136640_ld phases=3 kV=0.400 kW=20.000 pf=0.95
New Load.load_4500144355 bus1=bt9136806_ld phases=3 kV=0.400 kW=20.000 pf=0.95
New Load.load_4500144335 bus1=bt9136668_ld phases=3 kV=0.400 kW=20.000 pf=0.95
New Load.load_4500144375 bus1=bt9136663_ld phases=3 kV=0.400 kW=20.000 pf=0.95
New Load.load_4500144366 bus1=bt9136949_ld phases=3 kV=0.400 kW=12.000 pf=0.95
New Load.load_4500142852 bus1=bt9137009_ld phases=3 kV=0.400 kW=12.000 pf=0.95
New Load.load_4500142842 bus1=bt9136985_ld phases=3 kV=0.400 kW=20.000 pf=0.95
New Load.load_4500144328 bus1=bt9136888_ld phases=3 kV=0.400 kW=20.000 pf=0.95
New Load.load_4500144359 bus1=bt9136882_ld phases=3 kV=0.400 kW=20.000 pf=0.95
New Load.load_4500144330 bus1=bt9136683_ld phases=3 kV=0.400 kW=20.000 pf=0.95
New Load.load_4500144377 bus1=bt9137123_ld phases=3 kV=0.400 kW=20.000 pf=0.95
New Load.load_4500144348 bus1=bt9136692_ld phases=3 kV=0.400 kW=12.000 pf=0.95
New Load.load_4500121616 bus1=bt3822939_ld phases=3 kV=0.400 kW=80.000 pf=0.95
