New Line.mt54254 Bus1=bus_mt111752 Bus2=bus_mt132379 phases=3 r1=0.001506 x1=0.000425 r0=0.0016539999999999999 x0=0.001653 Normamps=90.10 length=143 units=m
New Line.mt26697 Bus1=bus_mt107679 Bus2=bus_mt70024 phases=3 r1=0.001506 x1=0.000425 r0=0.0016539999999999999 x0=0.001653 Normamps=90.10 length=97 units=m
New Line.mt26615 Bus1=bus_mt111564 Bus2=bus_mt70025 phases=3 r1=0.001506 x1=0.000425 r0=0.0016539999999999999 x0=0.001653 Normamps=90.10 length=129 units=m
New Line.mt54398 Bus1=bus_mt70399 Bus2=bus_mt70026 phases=3 r1=0.000763 x1=0.000398 r0=0.000911 x0=0.001625 Normamps=144.50 length=76 units=m
New Line.mt35429 Bus1=bus_mt126650 Bus2=bus_mt70043 phases=3 r1=0.001506 x1=0.000425 r0=0.0016539999999999999 x0=0.001653 Normamps=-999.00 length=65 units=m
New Line.mt17757 Bus1=bus_mt70045 Bus2=bus_mt70044 phases=3 r1=0.000944 x1=0.00041 r0=0.001092 x0=0.001637 Normamps=121.55 length=80 units=m
New Line.mt42851 Bus1=bus_mt81633 Bus2=bus_mt70045 phases=3 r1=0.000944 x1=0.00041 r0=0.001092 x0=0.001637 Normamps=121.55 length=155 units=m
New Line.mt27553 Bus1=bus_mt119183 Bus2=bus_mt70062 phases=3 r1=0.001506 x1=0.000425 r0=0.0016539999999999999 x0=0.001653 Normamps=90.10 length=43 units=m
New Line.mt54529 Bus1=bus_mt128436 Bus2=bus_mt70068 phases=2 r1=0.001506 x1=0.000425 r0=0.0016539999999999999 x0=0.001653 Normamps=90.10 length=129 units=m
New Line.mt14421 Bus1=bus_mt72983 Bus2=bus_mt70199 phases=3 r1=0.001506 x1=0.000425 r0=0.0016539999999999999 x0=0.001653 Normamps=90.10 length=113 units=m
New Line.mt36877 Bus1=bus_mt78426 Bus2=bus_mt70230 phases=2 r1=0.001506 x1=0.000425 r0=0.0016539999999999999 x0=0.001653 Normamps=90.10 length=10 units=m
New Line.mt43090 Bus1=bus_mt113338 Bus2=bus_mt70231 phases=3 r1=0.001506 x1=0.000425 r0=0.0016539999999999999 x0=0.001653 Normamps=90.10 length=32 units=m
New Line.mt12600 Bus1=bus_mt114487 Bus2=bus_mt70274 phases=2 r1=0.001506 x1=0.000425 r0=0.0016539999999999999 x0=0.001625 Normamps=-999.00 length=19 units=m
New Line.mt35480 Bus1=bus_mt70274 Bus2=bus_mt70276 phases=2 r1=0.001506 x1=0.000425 r0=0.0016539999999999999 x0=0.001625 Normamps=-999.00 length=80 units=m
New Line.mt17816 Bus1=bus_mt70276 Bus2=bus_mt70278 phases=2 r1=0.001506 x1=0.000425 r0=0.0016539999999999999 x0=0.001625 Normamps=-999.00 length=68 units=m
New Line.mt17815 Bus1=bus_mt70278 Bus2=bus_mt70280 phases=2 r1=0.001506 x1=0.000425 r0=0.0016539999999999999 x0=0.001625 Normamps=-999.00 length=68 units=m
New Line.mt46615 Bus1=bus_mt70405 Bus2=bus_mt70286 phases=3 r1=0.001506 x1=0.000425 r0=0.0016539999999999999 x0=0.001653 Normamps=90.10 length=53 units=m
New Line.mt24689 Bus1=bus_mt82278 Bus2=bus_mt70399 phases=3 r1=0.000763 x1=0.000398 r0=0.000911 x0=0.001625 Normamps=144.50 length=50 units=m
New Line.mt27448 Bus1=bus_mt70026 Bus2=bus_mt70401 phases=3 r1=0.000763 x1=0.000398 r0=0.000911 x0=0.001625 Normamps=144.50 length=82 units=m
New Line.mt54397 Bus1=bus_mt70401 Bus2=bus_mt70403 phases=3 r1=0.000763 x1=0.000398 r0=0.000911 x0=0.001625 Normamps=144.50 length=85 units=m
New Line.mt26522 Bus1=bus_mt113661 Bus2=bus_mt70404 phases=3 r1=0.001506 x1=0.000425 r0=0.0016539999999999999 x0=0.001653 Normamps=90.10 length=59 units=m
New Line.mt43390 Bus1=bus_mt127092 Bus2=bus_mt70405 phases=3 r1=0.001506 x1=0.000425 r0=0.0016539999999999999 x0=0.001653 Normamps=90.10 length=138 units=m
New Line.mt43386 Bus1=bus_mt112931 Bus2=bus_mt70406 phases=3 r1=0.001506 x1=0.000425 r0=0.0016539999999999999 x0=0.001653 Normamps=90.10 length=137 units=m
New Line.mt45562 Bus1=bus_mt92422 Bus2=bus_mt70409 phases=3 r1=0.001506 x1=0.000425 r0=0.0016539999999999999 x0=0.001653 Normamps=90.10 length=18 units=m
New Line.mt24882 Bus1=bus_mt114001 Bus2=bus_mt70540 phases=3 r1=0.001506 x1=0.000425 r0=0.0016539999999999999 x0=0.001653 Normamps=90.10 length=24 units=m
New Line.mt35499 Bus1=bus_mt70540 Bus2=bus_mt70541 phases=3 r1=0.001506 x1=0.000425 r0=0.0016539999999999999 x0=0.001653 Normamps=90.10 length=38 units=m
New Line.mt14424 Bus1=bus_mt70895 Bus2=bus_mt70894 phases=3 r1=0.001506 x1=0.000425 r0=0.0016539999999999999 x0=0.001653 Normamps=90.10 length=85 units=m
New Line.mt14423 Bus1=bus_mt70896 Bus2=bus_mt70895 phases=3 r1=0.001506 x1=0.000425 r0=0.0016539999999999999 x0=0.001653 Normamps=90.10 length=20 units=m
New Line.mt14422 Bus1=bus_mt70897 Bus2=bus_mt70896 phases=3 r1=0.001506 x1=0.000425 r0=0.0016539999999999999 x0=0.001653 Normamps=90.10 length=80 units=m
New Line.mt48030 Bus1=bus_mt70898 Bus2=bus_mt70897 phases=3 r1=0.001506 x1=0.000425 r0=0.0016539999999999999 x0=0.001653 Normamps=90.10 length=36 units=m
New Line.mt36900 Bus1=bus_mt70893 Bus2=bus_mt70898 phases=3 r1=0.001506 x1=0.000425 r0=0.0016539999999999999 x0=0.001653 Normamps=90.10 length=83 units=m
New Line.mt19275 Bus1=bus_mt98314 Bus2=bus_mt70899 phases=3 r1=0.001506 x1=0.000425 r0=0.0016539999999999999 x0=0.001653 Normamps=90.10 length=10 units=m
New Line.mt14428 Bus1=bus_mt70902 Bus2=bus_mt70900 phases=3 r1=0.001506 x1=0.000425 r0=0.0016539999999999999 x0=0.001653 Normamps=90.10 length=93 units=m
New Line.mt14397 Bus1=bus_mt77375 Bus2=bus_mt70728 phases=3 r1=0.001506 x1=0.000425 r0=0.0016539999999999999 x0=0.001653 Normamps=90.10 length=10 units=m
New Line.mt46633 Bus1=bus_mt70730 Bus2=bus_mt70729 phases=3 r1=0.000763 x1=0.000398 r0=0.000911 x0=0.001625 Normamps=144.50 length=5 units=m
New Line.mt35500 Bus1=bus_mt70731 Bus2=bus_mt70730 phases=3 r1=0.000763 x1=0.000398 r0=0.000911 x0=0.001625 Normamps=144.50 length=5 units=m
New Line.mt46632 Bus1=bus_mt115416 Bus2=bus_mt70731 phases=3 r1=0.000763 x1=0.000398 r0=0.000911 x0=0.001625 Normamps=144.50 length=113 units=m
New Line.mt12621 Bus1=bus_mt111719 Bus2=bus_mt70732 phases=3 r1=0.000763 x1=0.000398 r0=0.000911 x0=0.001625 Normamps=144.50 length=29 units=m
New Line.mt3182 Bus1=bus_mt70732 Bus2=bus_mt70733 phases=3 r1=0.000763 x1=0.000398 r0=0.000911 x0=0.001625 Normamps=144.50 length=12 units=m
New Line.mt35502 Bus1=bus_mt70733 Bus2=bus_mt70734 phases=3 r1=0.000916 x1=0.000425 r0=0.0016539999999999999 x0=0.001598 Normamps=141.95 length=39 units=m
New Line.mt46634 Bus1=bus_mt70734 Bus2=bus_mt70735 phases=3 r1=0.000916 x1=0.000425 r0=0.0016539999999999999 x0=0.001598 Normamps=141.95 length=47 units=m
New Line.mt12620 Bus1=bus_mt70735 Bus2=bus_mt70736 phases=3 r1=0.000916 x1=0.000425 r0=0.0016539999999999999 x0=0.001598 Normamps=141.95 length=42 units=m
New Line.mt12619 Bus1=bus_mt70736 Bus2=bus_mt70737 phases=3 r1=0.000916 x1=0.000425 r0=0.0016539999999999999 x0=0.001598 Normamps=141.95 length=16 units=m
New Line.mt35501 Bus1=bus_mt70735 Bus2=bus_mt70744 phases=3 r1=0.000916 x1=0.000425 r0=0.0016539999999999999 x0=0.001598 Normamps=141.95 length=34 units=m
New Line.mt47903 Bus1=bus_mt70760 Bus2=bus_mt70753 phases=2 r1=0.001506 x1=0.000425 r0=0.0016539999999999999 x0=0.001653 Normamps=90.10 length=123 units=m
New Line.mt36756 Bus1=bus_mt70753 Bus2=bus_mt70754 phases=2 r1=0.001506 x1=0.000425 r0=0.0016539999999999999 x0=0.001653 Normamps=90.10 length=147 units=m
New Line.mt19150 Bus1=bus_mt70754 Bus2=bus_mt70755 phases=2 r1=0.001506 x1=0.000425 r0=0.0016539999999999999 x0=0.001653 Normamps=90.10 length=147 units=m
New Line.mt56146 Bus1=bus_mt83328 Bus2=bus_mt70756 phases=2 r1=0.001506 x1=0.000425 r0=0.0016539999999999999 x0=0.001653 Normamps=90.10 length=68 units=m
New Line.mt36755 Bus1=bus_mt70772 Bus2=bus_mt70760 phases=2 r1=0.001506 x1=0.000425 r0=0.0016539999999999999 x0=0.001653 Normamps=90.10 length=91 units=m
New Line.mt19149 Bus1=bus_mt113372 Bus2=bus_mt70770 phases=2 r1=0.001506 x1=0.000425 r0=0.0016539999999999999 x0=0.001653 Normamps=90.10 length=27 units=m
New Line.mt47902 Bus1=bus_mt70770 Bus2=bus_mt70772 phases=2 r1=0.001506 x1=0.000425 r0=0.0016539999999999999 x0=0.001653 Normamps=90.10 length=81 units=m
New Line.mt14444 Bus1=bus_mt95710 Bus2=bus_mt70774 phases=2 r1=0.001506 x1=0.000425 r0=0.0016539999999999999 x0=0.001653 Normamps=90.10 length=55 units=m
New Line.mt47900 Bus1=bus_mt87938 Bus2=bus_mt70775 phases=2 r1=0.001506 x1=0.000425 r0=0.0016539999999999999 x0=0.001653 Normamps=90.10 length=40 units=m
New Line.mt47906 Bus1=bus_mt70806 Bus2=bus_mt70804 phases=2 r1=0.001506 x1=0.000425 r0=0.0016539999999999999 x0=0.001653 Normamps=90.10 length=142 units=m
New Line.mt36759 Bus1=bus_mt70807 Bus2=bus_mt70806 phases=2 r1=0.001506 x1=0.000425 r0=0.0016539999999999999 x0=0.001653 Normamps=90.10 length=116 units=m
New Line.mt14285 Bus1=bus_mt70808 Bus2=bus_mt70807 phases=2 r1=0.001506 x1=0.000425 r0=0.0016539999999999999 x0=0.001653 Normamps=90.10 length=106 units=m
New Line.mt47905 Bus1=bus_mt70809 Bus2=bus_mt70808 phases=2 r1=0.001506 x1=0.000425 r0=0.0016539999999999999 x0=0.001653 Normamps=90.10 length=111 units=m
New Line.mt36758 Bus1=bus_mt70810 Bus2=bus_mt70809 phases=2 r1=0.001506 x1=0.000425 r0=0.0016539999999999999 x0=0.001653 Normamps=90.10 length=23 units=m
New Line.mt14284 Bus1=bus_mt70889 Bus2=bus_mt70810 phases=2 r1=0.001506 x1=0.000425 r0=0.0016539999999999999 x0=0.001653 Normamps=90.10 length=106 units=m
New Line.mt14292 Bus1=bus_mt70847 Bus2=bus_mt70822 phases=2 r1=0.001506 x1=0.000425 r0=0.0016539999999999999 x0=0.001653 Normamps=90.10 length=85 units=m
New Line.mt36772 Bus1=bus_mt70822 Bus2=bus_mt70824 phases=2 r1=0.001506 x1=0.000425 r0=0.0016539999999999999 x0=0.001653 Normamps=90.10 length=82 units=m
New Line.mt19157 Bus1=bus_mt70824 Bus2=bus_mt70826 phases=2 r1=0.001506 x1=0.000425 r0=0.0016539999999999999 x0=0.001653 Normamps=90.10 length=71 units=m
New Line.mt47918 Bus1=bus_mt70826 Bus2=bus_mt70828 phases=2 r1=0.001506 x1=0.000425 r0=0.0016539999999999999 x0=0.001653 Normamps=90.10 length=145 units=m
New Line.mt36771 Bus1=bus_mt70828 Bus2=bus_mt70829 phases=2 r1=0.001506 x1=0.000425 r0=0.0016539999999999999 x0=0.001653 Normamps=90.10 length=145 units=m
New Line.mt47917 Bus1=bus_mt70829 Bus2=bus_mt70830 phases=2 r1=0.001506 x1=0.000425 r0=0.0016539999999999999 x0=0.001653 Normamps=90.10 length=145 units=m
New Line.mt14291 Bus1=bus_mt70830 Bus2=bus_mt70831 phases=2 r1=0.001506 x1=0.000425 r0=0.0016539999999999999 x0=0.001653 Normamps=90.10 length=145 units=m
New Line.mt47916 Bus1=bus_mt123181 Bus2=bus_mt70832 phases=2 r1=0.001506 x1=0.000425 r0=0.0016539999999999999 x0=0.001653 Normamps=90.10 length=148 units=m
New Line.mt14290 Bus1=bus_mt70832 Bus2=bus_mt70833 phases=2 r1=0.001506 x1=0.000425 r0=0.0016539999999999999 x0=0.001653 Normamps=90.10 length=123 units=m
New Line.mt36769 Bus1=bus_mt70833 Bus2=bus_mt70835 phases=2 r1=0.001506 x1=0.000425 r0=0.0016539999999999999 x0=0.001653 Normamps=90.10 length=134 units=m
New Line.mt47915 Bus1=bus_mt70835 Bus2=bus_mt70836 phases=2 r1=0.001506 x1=0.000425 r0=0.0016539999999999999 x0=0.001653 Normamps=90.10 length=119 units=m
New Line.mt36768 Bus1=bus_mt70836 Bus2=bus_mt70837 phases=2 r1=0.001506 x1=0.000425 r0=0.0016539999999999999 x0=0.001653 Normamps=90.10 length=119 units=m
New Line.mt19155 Bus1=bus_mt70837 Bus2=bus_mt70838 phases=2 r1=0.001506 x1=0.000425 r0=0.0016539999999999999 x0=0.001653 Normamps=90.10 length=125 units=m
New Line.mt47914 Bus1=bus_mt70838 Bus2=bus_mt70839 phases=2 r1=0.001506 x1=0.000425 r0=0.0016539999999999999 x0=0.001653 Normamps=90.10 length=123 units=m
New Line.mt47910 Bus1=bus_mt70857 Bus2=bus_mt70841 phases=2 r1=0.001506 x1=0.000425 r0=0.0016539999999999999 x0=0.001653 Normamps=90.10 length=91 units=m
New Line.mt14289 Bus1=bus_mt70849 Bus2=bus_mt70847 phases=2 r1=0.001506 x1=0.000425 r0=0.0016539999999999999 x0=0.001653 Normamps=90.10 length=113 units=m
New Line.mt47913 Bus1=bus_mt70850 Bus2=bus_mt70849 phases=2 r1=0.001506 x1=0.000425 r0=0.0016539999999999999 x0=0.001653 Normamps=90.10 length=113 units=m
New Line.mt36767 Bus1=bus_mt70851 Bus2=bus_mt70850 phases=2 r1=0.001506 x1=0.000425 r0=0.0016539999999999999 x0=0.001653 Normamps=90.10 length=114 units=m
New Line.mt47912 Bus1=bus_mt70852 Bus2=bus_mt70851 phases=2 r1=0.001506 x1=0.000425 r0=0.0016539999999999999 x0=0.001653 Normamps=90.10 length=84 units=m
New Line.mt19154 Bus1=bus_mt70853 Bus2=bus_mt70852 phases=2 r1=0.001506 x1=0.000425 r0=0.0016539999999999999 x0=0.001653 Normamps=90.10 length=98 units=m
New Line.mt36766 Bus1=bus_mt70854 Bus2=bus_mt70853 phases=2 r1=0.001506 x1=0.000425 r0=0.0016539999999999999 x0=0.001653 Normamps=90.10 length=119 units=m
New Line.mt14288 Bus1=bus_mt70855 Bus2=bus_mt70854 phases=2 r1=0.001506 x1=0.000425 r0=0.0016539999999999999 x0=0.001653 Normamps=90.10 length=119 units=m
New Line.mt47911 Bus1=bus_mt70856 Bus2=bus_mt70855 phases=2 r1=0.001506 x1=0.000425 r0=0.0016539999999999999 x0=0.001653 Normamps=90.10 length=97 units=m
New Line.mt36765 Bus1=bus_mt70841 Bus2=bus_mt70856 phases=2 r1=0.001506 x1=0.000425 r0=0.0016539999999999999 x0=0.001653 Normamps=90.10 length=96 units=m
New Line.mt36764 Bus1=bus_mt70859 Bus2=bus_mt70857 phases=2 r1=0.001506 x1=0.000425 r0=0.0016539999999999999 x0=0.001653 Normamps=90.10 length=92 units=m
New Line.mt47909 Bus1=bus_mt70861 Bus2=bus_mt70859 phases=2 r1=0.001506 x1=0.000425 r0=0.0016539999999999999 x0=0.001653 Normamps=90.10 length=114 units=m
New Line.mt19153 Bus1=bus_mt70863 Bus2=bus_mt70861 phases=2 r1=0.001506 x1=0.000425 r0=0.0016539999999999999 x0=0.001653 Normamps=90.10 length=93 units=m
New Line.mt36762 Bus1=bus_mt70865 Bus2=bus_mt70863 phases=2 r1=0.001506 x1=0.000425 r0=0.0016539999999999999 x0=0.001653 Normamps=90.10 length=118 units=m
New Line.mt47908 Bus1=bus_mt70869 Bus2=bus_mt70865 phases=2 r1=0.001506 x1=0.000425 r0=0.0016539999999999999 x0=0.001653 Normamps=90.10 length=119 units=m
New Line.mt19152 Bus1=bus_mt70875 Bus2=bus_mt70866 phases=2 r1=0.001506 x1=0.000425 r0=0.0016539999999999999 x0=0.001653 Normamps=90.10 length=91 units=m
New Line.mt36761 Bus1=bus_mt70871 Bus2=bus_mt70869 phases=2 r1=0.001506 x1=0.000425 r0=0.0016539999999999999 x0=0.001653 Normamps=90.10 length=59 units=m
New Line.mt14286 Bus1=bus_mt70873 Bus2=bus_mt70871 phases=2 r1=0.001506 x1=0.000425 r0=0.0016539999999999999 x0=0.001653 Normamps=90.10 length=91 units=m
New Line.mt47907 Bus1=bus_mt70866 Bus2=bus_mt70873 phases=2 r1=0.001506 x1=0.000425 r0=0.0016539999999999999 x0=0.001653 Normamps=90.10 length=88 units=m
New Line.mt19151 Bus1=bus_mt70877 Bus2=bus_mt70875 phases=2 r1=0.001506 x1=0.000425 r0=0.0016539999999999999 x0=0.001653 Normamps=90.10 length=69 units=m
New Line.mt36760 Bus1=bus_mt70804 Bus2=bus_mt70877 phases=2 r1=0.001506 x1=0.000425 r0=0.0016539999999999999 x0=0.001653 Normamps=90.10 length=70 units=m
New Line.mt37042 Bus1=bus_mt70887 Bus2=bus_mt70884 phases=2 r1=0.001506 x1=0.000425 r0=0.0016539999999999999 x0=0.001653 Normamps=90.10 length=39 units=m
New Line.mt19419 Bus1=bus_mt70886 Bus2=bus_mt70885 phases=2 r1=0.001506 x1=0.000425 r0=0.0016539999999999999 x0=0.001653 Normamps=90.10 length=52 units=m
New Line.mt19418 Bus1=bus_mt70884 Bus2=bus_mt70886 phases=2 r1=0.001506 x1=0.000425 r0=0.0016539999999999999 x0=0.001653 Normamps=90.10 length=13 units=m
New Line.mt48165 Bus1=bus_mt78422 Bus2=bus_mt70887 phases=2 r1=0.001506 x1=0.000425 r0=0.0016539999999999999 x0=0.001653 Normamps=90.10 length=42 units=m
New Line.mt47904 Bus1=bus_mt70890 Bus2=bus_mt70889 phases=2 r1=0.001506 x1=0.000425 r0=0.0016539999999999999 x0=0.001653 Normamps=90.10 length=60 units=m
New Line.mt36757 Bus1=bus_mt120475 Bus2=bus_mt70890 phases=2 r1=0.001506 x1=0.000425 r0=0.0016539999999999999 x0=0.001653 Normamps=90.10 length=72 units=m
New Line.mt48032 Bus1=bus_mt70899 Bus2=bus_mt70893 phases=3 r1=0.001506 x1=0.000425 r0=0.0016539999999999999 x0=0.001653 Normamps=90.10 length=83 units=m
New Line.mt48031 Bus1=bus_mt70904 Bus2=bus_mt70902 phases=3 r1=0.001506 x1=0.000425 r0=0.0016539999999999999 x0=0.001653 Normamps=90.10 length=93 units=m
New Line.mt36902 Bus1=bus_mt70906 Bus2=bus_mt70904 phases=3 r1=0.001506 x1=0.000425 r0=0.0016539999999999999 x0=0.001653 Normamps=90.10 length=93 units=m
New Line.mt14425 Bus1=bus_mt70894 Bus2=bus_mt70906 phases=3 r1=0.001506 x1=0.000425 r0=0.0016539999999999999 x0=0.001653 Normamps=90.10 length=88 units=m
New Line.mt26849 Bus1=bus_mt87041 Bus2=bus_mt70908 phases=3 r1=0.000763 x1=0.000398 r0=0.000911 x0=0.001625 Normamps=144.50 length=123 units=m
New Line.mt21184 Bus1=bus_mt71441 Bus2=bus_mt71440 phases=2 r1=0.001506 x1=0.000425 r0=0.0016539999999999999 x0=0.001653 Normamps=90.10 length=31 units=m
New Line.mt21183 Bus1=bus_mt71443 Bus2=bus_mt71441 phases=2 r1=0.001506 x1=0.000425 r0=0.0016539999999999999 x0=0.001653 Normamps=90.10 length=74 units=m
New Line.mt21182 Bus1=bus_mt71429 Bus2=bus_mt71443 phases=2 r1=0.001506 x1=0.000425 r0=0.0016539999999999999 x0=0.001653 Normamps=90.10 length=103 units=m
New Line.mt10684 Bus1=bus_mt71461 Bus2=bus_mt71444 phases=2 r1=0.001506 x1=0.000425 r0=0.0016539999999999999 x0=0.001653 Normamps=90.10 length=103 units=m
New Line.mt34262 Bus1=bus_mt71444 Bus2=bus_mt71446 phases=2 r1=0.001506 x1=0.000425 r0=0.0016539999999999999 x0=0.001653 Normamps=90.10 length=37 units=m
New Line.mt16603 Bus1=bus_mt71455 Bus2=bus_mt71447 phases=2 r1=0.001506 x1=0.000425 r0=0.0016539999999999999 x0=0.001653 Normamps=90.10 length=127 units=m
New Line.mt16595 Bus1=bus_mt99214 Bus2=bus_mt71550 phases=2 r1=0.001506 x1=0.000425 r0=0.0016539999999999999 x0=0.001653 Normamps=90.10 length=24 units=m
New Line.mt10681 Bus1=bus_mt71555 Bus2=bus_mt71552 phases=2 r1=0.001506 x1=0.000425 r0=0.0016539999999999999 x0=0.001653 Normamps=90.10 length=126 units=m
New Line.mt37040 Bus1=bus_mt116907 Bus2=bus_mt71661 phases=2 r1=0.001506 x1=0.000425 r0=0.0016539999999999999 x0=0.001653 Normamps=90.10 length=16 units=m
New Line.mt19421 Bus1=bus_mt71652 Bus2=bus_mt71663 phases=2 r1=0.001506 x1=0.000425 r0=0.0016539999999999999 x0=0.001653 Normamps=90.10 length=45 units=m
New Line.mt17882 Bus1=bus_mt121315 Bus2=bus_mt71156 phases=3 r1=0.001506 x1=0.000425 r0=0.0016539999999999999 x0=0.001653 Normamps=90.10 length=54 units=m
New Line.mt32401 Bus1=bus_mt100416 Bus2=bus_mt71374 phases=3 r1=0.001769 x1=0.000425 r0=0.0016539999999999999 x0=0.001653 Normamps=90.10 length=34 units=m
New Line.mt49779 Bus1=bus_mt100417 Bus2=bus_mt71377 phases=3 r1=0.001769 x1=0.000425 r0=0.0016539999999999999 x0=0.001653 Normamps=90.10 length=38 units=m
New Line.mt15317 Bus1=bus_mt100418 Bus2=bus_mt71380 phases=3 r1=0.001769 x1=0.000425 r0=0.0016539999999999999 x0=0.001653 Normamps=90.10 length=39 units=m
New Line.mt15318 Bus1=bus_mt100419 Bus2=bus_mt71383 phases=3 r1=0.001769 x1=0.000425 r0=0.0016539999999999999 x0=0.001653 Normamps=90.10 length=42 units=m
New Line.mt32402 Bus1=bus_mt100420 Bus2=bus_mt71385 phases=3 r1=0.001769 x1=0.000425 r0=0.0016539999999999999 x0=0.001653 Normamps=90.10 length=41 units=m
New Line.mt9282 Bus1=bus_mt100421 Bus2=bus_mt71389 phases=3 r1=0.001769 x1=0.000425 r0=0.0016539999999999999 x0=0.001653 Normamps=90.10 length=41 units=m
New Line.mt10689 Bus1=bus_mt71494 Bus2=bus_mt71413 phases=2 r1=0.001506 x1=0.000425 r0=0.0016539999999999999 x0=0.001653 Normamps=90.10 length=83 units=m
New Line.mt22290 Bus1=bus_mt71413 Bus2=bus_mt71414 phases=2 r1=0.001506 x1=0.000425 r0=0.0016539999999999999 x0=0.001653 Normamps=90.10 length=119 units=m
New Line.mt10728 Bus1=bus_mt71574 Bus2=bus_mt71415 phases=2 r1=0.001506 x1=0.000425 r0=0.0016539999999999999 x0=0.001653 Normamps=90.10 length=101 units=m
New Line.mt34263 Bus1=bus_mt71415 Bus2=bus_mt71416 phases=2 r1=0.001506 x1=0.000425 r0=0.0016539999999999999 x0=0.001653 Normamps=90.10 length=264 units=m
New Line.mt22552 Bus1=bus_mt85591 Bus2=bus_mt71417 phases=2 r1=0.001506 x1=0.000425 r0=0.0016539999999999999 x0=0.001653 Normamps=90.10 length=104 units=m
New Line.mt34254 Bus1=bus_mt71590 Bus2=bus_mt71418 phases=2 r1=0.001506 x1=0.000425 r0=0.0016539999999999999 x0=0.001653 Normamps=90.10 length=105 units=m
New Line.mt48432 Bus1=bus_mt71431 Bus2=bus_mt71429 phases=2 r1=0.001506 x1=0.000425 r0=0.0016539999999999999 x0=0.001653 Normamps=90.10 length=114 units=m
New Line.mt19698 Bus1=bus_mt71433 Bus2=bus_mt71431 phases=2 r1=0.001506 x1=0.000425 r0=0.0016539999999999999 x0=0.001653 Normamps=90.10 length=104 units=m
New Line.mt34109 Bus1=bus_mt132037 Bus2=bus_mt71433 phases=2 r1=0.001506 x1=0.000425 r0=0.0016539999999999999 x0=0.001653 Normamps=90.10 length=29 units=m
New Line.mt22560 Bus1=bus_mt71438 Bus2=bus_mt71436 phases=2 r1=0.001506 x1=0.000425 r0=0.0016539999999999999 x0=0.001653 Normamps=90.10 length=105 units=m
New Line.mt34273 Bus1=bus_mt71486 Bus2=bus_mt71438 phases=2 r1=0.001506 x1=0.000425 r0=0.0016539999999999999 x0=0.001653 Normamps=90.10 length=16 units=m
New Line.mt37293 Bus1=bus_mt71440 Bus2=bus_mt71439 phases=2 r1=0.001506 x1=0.000425 r0=0.0016539999999999999 x0=0.001653 Normamps=90.10 length=38 units=m
New Line.mt16605 Bus1=bus_mt71452 Bus2=bus_mt71450 phases=2 r1=0.001506 x1=0.000425 r0=0.0016539999999999999 x0=0.001653 Normamps=90.10 length=124 units=m
New Line.mt16604 Bus1=bus_mt71453 Bus2=bus_mt71452 phases=2 r1=0.001506 x1=0.000425 r0=0.0016539999999999999 x0=0.001653 Normamps=90.10 length=157 units=m
New Line.mt34271 Bus1=bus_mt71454 Bus2=bus_mt71453 phases=2 r1=0.001506 x1=0.000425 r0=0.0016539999999999999 x0=0.001653 Normamps=90.10 length=88 units=m
New Line.mt22557 Bus1=bus_mt71439 Bus2=bus_mt71454 phases=2 r1=0.001506 x1=0.000425 r0=0.0016539999999999999 x0=0.001653 Normamps=90.10 length=72 units=m
New Line.mt16602 Bus1=bus_mt71457 Bus2=bus_mt71455 phases=2 r1=0.001506 x1=0.000425 r0=0.0016539999999999999 x0=0.001653 Normamps=90.10 length=159 units=m
New Line.mt34269 Bus1=bus_mt71458 Bus2=bus_mt71457 phases=2 r1=0.001506 x1=0.000425 r0=0.0016539999999999999 x0=0.001653 Normamps=90.10 length=31 units=m
New Line.mt10692 Bus1=bus_mt71506 Bus2=bus_mt71458 phases=2 r1=0.001506 x1=0.000425 r0=0.0016539999999999999 x0=0.001653 Normamps=90.10 length=69 units=m
New Line.mt48429 Bus1=bus_mt71508 Bus2=bus_mt71459 phases=2 r1=0.001506 x1=0.000425 r0=0.0016539999999999999 x0=0.001653 Normamps=90.10 length=67 units=m
New Line.mt10685 Bus1=bus_mt71528 Bus2=bus_mt71461 phases=2 r1=0.001506 x1=0.000425 r0=0.0016539999999999999 x0=0.001653 Normamps=90.10 length=205 units=m
New Line.mt34259 Bus1=bus_mt71485 Bus2=bus_mt71463 phases=2 r1=0.001506 x1=0.000425 r0=0.0016539999999999999 x0=0.001653 Normamps=90.10 length=169 units=m
New Line.mt22549 Bus1=bus_mt71491 Bus2=bus_mt71464 phases=2 r1=0.001506 x1=0.000425 r0=0.0016539999999999999 x0=0.001653 Normamps=90.10 length=62 units=m
New Line.mt34261 Bus1=bus_mt71464 Bus2=bus_mt71466 phases=2 r1=0.001506 x1=0.000425 r0=0.0016539999999999999 x0=0.001653 Normamps=90.10 length=97 units=m
New Line.mt22548 Bus1=bus_mt71466 Bus2=bus_mt71468 phases=2 r1=0.001506 x1=0.000425 r0=0.0016539999999999999 x0=0.001653 Normamps=90.10 length=136 units=m
New Line.mt34260 Bus1=bus_mt71468 Bus2=bus_mt71471 phases=2 r1=0.001506 x1=0.000425 r0=0.0016539999999999999 x0=0.001653 Normamps=90.10 length=89 units=m
New Line.mt16596 Bus1=bus_mt71471 Bus2=bus_mt71474 phases=2 r1=0.001506 x1=0.000425 r0=0.0016539999999999999 x0=0.001653 Normamps=90.10 length=121 units=m
New Line.mt22547 Bus1=bus_mt71474 Bus2=bus_mt71478 phases=2 r1=0.001506 x1=0.000425 r0=0.0016539999999999999 x0=0.001653 Normamps=90.10 length=83 units=m
New Line.mt10682 Bus1=bus_mt71478 Bus2=bus_mt71485 phases=2 r1=0.001506 x1=0.000425 r0=0.0016539999999999999 x0=0.001653 Normamps=90.10 length=47 units=m
New Line.mt10693 Bus1=bus_mt71487 Bus2=bus_mt71486 phases=2 r1=0.001506 x1=0.000425 r0=0.0016539999999999999 x0=0.001653 Normamps=90.10 length=94 units=m
New Line.mt22559 Bus1=bus_mt71488 Bus2=bus_mt71487 phases=2 r1=0.001506 x1=0.000425 r0=0.0016539999999999999 x0=0.001653 Normamps=90.10 length=55 units=m
New Line.mt34272 Bus1=bus_mt71489 Bus2=bus_mt71488 phases=2 r1=0.001506 x1=0.000425 r0=0.0016539999999999999 x0=0.001653 Normamps=90.10 length=133 units=m
New Line.mt22558 Bus1=bus_mt71450 Bus2=bus_mt71489 phases=2 r1=0.001506 x1=0.000425 r0=0.0016539999999999999 x0=0.001653 Normamps=90.10 length=162 units=m
New Line.mt22550 Bus1=bus_mt71518 Bus2=bus_mt71490 phases=2 r1=0.001506 x1=0.000425 r0=0.0016539999999999999 x0=0.001653 Normamps=90.10 length=63 units=m
New Line.mt16435 Bus1=bus_mt132066 Bus2=bus_mt71491 phases=2 r1=0.001506 x1=0.000425 r0=0.0016539999999999999 x0=0.001653 Normamps=90.10 length=245 units=m
New Line.mt22553 Bus1=bus_mt71588 Bus2=bus_mt71494 phases=2 r1=0.001506 x1=0.000425 r0=0.0016539999999999999 x0=0.001653 Normamps=90.10 length=202 units=m
New Line.mt21181 Bus1=bus_mt71552 Bus2=bus_mt71496 phases=2 r1=0.001506 x1=0.000425 r0=0.0016539999999999999 x0=0.001653 Normamps=90.10 length=67 units=m
New Line.mt18954 Bus1=bus_mt71499 Bus2=bus_mt71498 phases=2 r1=0.001506 x1=0.000425 r0=0.0016539999999999999 x0=0.001653 Normamps=90.10 length=55 units=m
New Line.mt34114 Bus1=bus_mt87056 Bus2=bus_mt71499 phases=2 r1=0.001506 x1=0.000425 r0=0.0016539999999999999 x0=0.001653 Normamps=90.10 length=28 units=m
New Line.mt16608 Bus1=bus_mt71501 Bus2=bus_mt71500 phases=2 r1=0.001506 x1=0.000425 r0=0.0016539999999999999 x0=0.001653 Normamps=90.10 length=103 units=m
New Line.mt16607 Bus1=bus_mt71584 Bus2=bus_mt71501 phases=2 r1=0.001506 x1=0.000425 r0=0.0016539999999999999 x0=0.001653 Normamps=90.10 length=103 units=m
New Line.mt10706 Bus1=bus_mt71511 Bus2=bus_mt71505 phases=2 r1=0.001506 x1=0.000425 r0=0.0016539999999999999 x0=0.001653 Normamps=90.10 length=172 units=m
New Line.mt10691 Bus1=bus_mt71459 Bus2=bus_mt71506 phases=2 r1=0.001506 x1=0.000425 r0=0.0016539999999999999 x0=0.001653 Normamps=90.10 length=66 units=m
New Line.mt16601 Bus1=bus_mt71583 Bus2=bus_mt71508 phases=2 r1=0.001506 x1=0.000425 r0=0.0016539999999999999 x0=0.001653 Normamps=90.10 length=106 units=m
New Line.mt13758 Bus1=bus_mt71505 Bus2=bus_mt71510 phases=2 r1=0.001506 x1=0.000425 r0=0.0016539999999999999 x0=0.001653 Normamps=90.10 length=26 units=m
New Line.mt10703 Bus1=bus_mt71512 Bus2=bus_mt71511 phases=2 r1=0.001506 x1=0.000425 r0=0.0016539999999999999 x0=0.001653 Normamps=90.10 length=104 units=m
New Line.mt10702 Bus1=bus_mt71513 Bus2=bus_mt71512 phases=2 r1=0.001506 x1=0.000425 r0=0.0016539999999999999 x0=0.001653 Normamps=90.10 length=181 units=m
New Line.mt8155 Bus1=bus_mt95306 Bus2=bus_mt71513 phases=2 r1=0.001506 x1=0.000425 r0=0.0016539999999999999 x0=0.001653 Normamps=90.10 length=92 units=m
New Line.mt34266 Bus1=bus_mt71516 Bus2=bus_mt71514 phases=2 r1=0.001506 x1=0.000425 r0=0.0016539999999999999 x0=0.001653 Normamps=90.10 length=130 units=m
New Line.mt10690 Bus1=bus_mt71531 Bus2=bus_mt71516 phases=2 r1=0.001506 x1=0.000425 r0=0.0016539999999999999 x0=0.001653 Normamps=90.10 length=127 units=m
New Line.mt16597 Bus1=bus_mt71446 Bus2=bus_mt71518 phases=2 r1=0.001506 x1=0.000425 r0=0.0016539999999999999 x0=0.001653 Normamps=90.10 length=62 units=m
New Line.mt10687 Bus1=bus_mt71417 Bus2=bus_mt71524 phases=2 r1=0.001506 x1=0.000425 r0=0.0016539999999999999 x0=0.001653 Normamps=90.10 length=282 units=m
New Line.mt21186 Bus1=bus_mt71510 Bus2=bus_mt71525 phases=2 r1=0.001506 x1=0.000425 r0=0.0016539999999999999 x0=0.001653 Normamps=90.10 length=105 units=m
New Line.mt21185 Bus1=bus_mt71527 Bus2=bus_mt71526 phases=2 r1=0.001506 x1=0.000425 r0=0.0016539999999999999 x0=0.001653 Normamps=90.10 length=13 units=m
New Line.mt10699 Bus1=bus_mt71562 Bus2=bus_mt71527 phases=2 r1=0.001506 x1=0.000425 r0=0.0016539999999999999 x0=0.001653 Normamps=90.10 length=123 units=m
New Line.mt10686 Bus1=bus_mt71524 Bus2=bus_mt71528 phases=2 r1=0.001506 x1=0.000425 r0=0.0016539999999999999 x0=0.001653 Normamps=90.10 length=116 units=m
New Line.mt22554 Bus1=bus_mt71532 Bus2=bus_mt71531 phases=2 r1=0.001506 x1=0.000425 r0=0.0016539999999999999 x0=0.001653 Normamps=90.10 length=137 units=m
New Line.mt16600 Bus1=bus_mt71571 Bus2=bus_mt71532 phases=2 r1=0.001506 x1=0.000425 r0=0.0016539999999999999 x0=0.001653 Normamps=90.10 length=91 units=m
New Line.mt32068 Bus1=bus_mt97545 Bus2=bus_mt71534 phases=2 r1=0.001506 x1=0.000425 r0=0.0016539999999999999 x0=0.001653 Normamps=90.10 length=109 units=m
New Line.mt34258 Bus1=bus_mt71538 Bus2=bus_mt71536 phases=2 r1=0.001506 x1=0.000425 r0=0.0016539999999999999 x0=0.001653 Normamps=90.10 length=101 units=m
New Line.mt22546 Bus1=bus_mt71539 Bus2=bus_mt71538 phases=2 r1=0.001506 x1=0.000425 r0=0.0016539999999999999 x0=0.001653 Normamps=90.10 length=143 units=m
New Line.mt34257 Bus1=bus_mt71547 Bus2=bus_mt71539 phases=2 r1=0.001506 x1=0.000425 r0=0.0016539999999999999 x0=0.001653 Normamps=90.10 length=133 units=m
New Line.mt10705 Bus1=bus_mt71541 Bus2=bus_mt71540 phases=2 r1=0.001506 x1=0.000425 r0=0.0016539999999999999 x0=0.001653 Normamps=90.10 length=107 units=m
New Line.mt10704 Bus1=bus_mt71525 Bus2=bus_mt71541 phases=2 r1=0.001506 x1=0.000425 r0=0.0016539999999999999 x0=0.001653 Normamps=90.10 length=102 units=m
New Line.mt34256 Bus1=bus_mt71496 Bus2=bus_mt71542 phases=2 r1=0.001506 x1=0.000425 r0=0.0016539999999999999 x0=0.001653 Normamps=90.10 length=66 units=m
New Line.mt22541 Bus1=bus_mt71542 Bus2=bus_mt71544 phases=2 r1=0.001506 x1=0.000425 r0=0.0016539999999999999 x0=0.001653 Normamps=90.10 length=88 units=m
New Line.mt327640 Bus1=bus_mt71498 Bus2=bus_mt71546 phases=2 r1=0.001506 x1=0.000425 r0=0.0016539999999999999 x0=0.001653 Normamps=90.10 length=155 units=m
New Line.mt47622 Bus1=bus_mt71546 Bus2=bus_mt71547 phases=2 r1=0.001506 x1=0.000425 r0=0.0016539999999999999 x0=0.001653 Normamps=90.10 length=57 units=m
New Line.mt16594 Bus1=bus_mt71549 Bus2=bus_mt71548 phases=2 r1=0.001506 x1=0.000425 r0=0.0016539999999999999 x0=0.001653 Normamps=90.10 length=127 units=m
New Line.mt16593 Bus1=bus_mt71550 Bus2=bus_mt71549 phases=2 r1=0.001506 x1=0.000425 r0=0.0016539999999999999 x0=0.001653 Normamps=90.10 length=33 units=m
New Line.mt34255 Bus1=bus_mt71544 Bus2=bus_mt71554 phases=2 r1=0.001506 x1=0.000425 r0=0.0016539999999999999 x0=0.001653 Normamps=90.10 length=123 units=m
New Line.mt22544 Bus1=bus_mt71550 Bus2=bus_mt71555 phases=2 r1=0.001506 x1=0.000425 r0=0.0016539999999999999 x0=0.001653 Normamps=90.10 length=120 units=m