New Load.BT14193419 Bus1=bus_bt_c14193419.3 phases=1 kW=0.5 pf=0.98 kv=0.22
New Load.BT14238099 Bus1=bus_bt_c14238099.1 phases=1 kW=0.5 pf=0.98 kv=0.22
New Load.BT14088481 Bus1=bus_bt_c14088481.3 phases=1 kW=0.5 pf=0.98 kv=0.22
New Load.BT14277238 Bus1=bus_bt_c14277238.3 phases=1 kW=0.5 pf=0.98 kv=0.22
New Load.BT14104678 Bus1=bus_bt_c14104678.2 phases=1 kW=0.5 pf=0.98 kv=0.22
New Load.BT14315520 Bus1=bus_bt_c14315520.3 phases=1 kW=0.5 pf=0.98 kv=0.22
New Load.BT14216332 Bus1=bus_bt_c14216332.1 phases=1 kW=0.5 pf=0.98 kv=0.22
New Load.BT14058247 Bus1=bus_bt_c14058247.1 phases=1 kW=0.5 pf=0.98 kv=0.22
New Load.BT14107372 Bus1=bus_bt_c14107372.3 phases=1 kW=0.5 pf=0.98 kv=0.22
New Load.BT14219214 Bus1=bus_bt_c14219214.3 phases=1 kW=0.5 pf=0.98 kv=0.22
New Load.BT14317024 Bus1=bus_bt_c14317024.1 phases=1 kW=0.5 pf=0.98 kv=0.22
New Load.BT14311572 Bus1=bus_bt_c14311572.2 phases=1 kW=0.5 pf=0.98 kv=0.22
New Load.BT14160698 Bus1=bus_bt_c14160698.3 phases=1 kW=0.5 pf=0.98 kv=0.22
New Load.BT14264058 Bus1=bus_bt_c14264058.1 phases=1 kW=0.5 pf=0.98 kv=0.22
New Load.BT14251708 Bus1=bus_bt_c14251708.1 phases=1 kW=0.5 pf=0.98 kv=0.22
New Load.BT14125745 Bus1=bus_bt_c14125745.1 phases=1 kW=0.5 pf=0.98 kv=0.22
New Load.BT14246078 Bus1=bus_bt_c14246078.3 phases=1 kW=0.5 pf=0.98 kv=0.22
New Load.BT14236676 Bus1=bus_bt_c14236676.1 phases=1 kW=0.5 pf=0.98 kv=0.22
New Load.BT14084846 Bus1=bus_bt_c14084846.1 phases=1 kW=0.5 pf=0.98 kv=0.22
New Load.BT14019262 Bus1=bus_bt_c14019262.1 phases=1 kW=0.5 pf=0.98 kv=0.22
New Load.BT14267339 Bus1=bus_bt_c14267339.1 phases=1 kW=0.5 pf=0.98 kv=0.22
New Load.BT14216540 Bus1=bus_bt_c14216540.1 phases=1 kW=0.5 pf=0.98 kv=0.22
New Load.BT14257743 Bus1=bus_bt_c14257743.1 phases=1 kW=0.5 pf=0.98 kv=0.22
New Load.BT14323413 Bus1=bus_bt_c14323413.1 phases=1 kW=0.5 pf=0.98 kv=0.22
New Load.BT14095621 Bus1=bus_bt_c14095621.2 phases=1 kW=0.5 pf=0.98 kv=0.22
New Load.BT14300318 Bus1=bus_bt_c14300318.1 phases=1 kW=0.5 pf=0.98 kv=0.22
New Load.BT14178309 Bus1=bus_bt_c14178309.2 phases=1 kW=0.5 pf=0.98 kv=0.22
New Load.BT14065550 Bus1=bus_bt_c14065550.2 phases=1 kW=0.5 pf=0.98 kv=0.22
New Load.BT14226895 Bus1=bus_bt_c14226895.2 phases=1 kW=0.5 pf=0.98 kv=0.22
New Load.BT14155765 Bus1=bus_bt_c14155765.2 phases=1 kW=0.5 pf=0.98 kv=0.22
New Load.BT14127558 Bus1=bus_bt_c14127558.2 phases=1 kW=0.5 pf=0.98 kv=0.22
New Load.BT14176692 Bus1=bus_bt_c14176692.2 phases=1 kW=0.5 pf=0.98 kv=0.22
New Load.BT14134242 Bus1=bus_bt_c14134242.2 phases=1 kW=0.5 pf=0.98 kv=0.22
New Load.BT14079636 Bus1=bus_bt_c14079636.3 phases=1 kW=0.5 pf=0.98 kv=0.22
New Load.BT14246879 Bus1=bus_bt_c14246879.3 phases=1 kW=0.5 pf=0.98 kv=0.22
New Load.BT14297770 Bus1=bus_bt_c14297770.2 phases=1 kW=0.5 pf=0.98 kv=0.22
New Load.BT14255751 Bus1=bus_bt_c14255751.3 phases=1 kW=0.5 pf=0.98 kv=0.22
New Load.BT14174236 Bus1=bus_bt_c14174236.3 phases=1 kW=0.5 pf=0.98 kv=0.22
New Load.BT14303718 Bus1=bus_bt_c14303718.2 phases=1 kW=0.5 pf=0.98 kv=0.22
New Load.BT14291074 Bus1=bus_bt_c14291074.1 phases=1 kW=0.5 pf=0.98 kv=0.22
New Load.BT14193758 Bus1=bus_bt_c14193758.3 phases=1 kW=0.5 pf=0.98 kv=0.22
New Load.BT14225532 Bus1=bus_bt_c14225532.1 phases=1 kW=0.5 pf=0.98 kv=0.22
New Load.BT14022484 Bus1=bus_bt_c14022484.1 phases=1 kW=0.5 pf=0.98 kv=0.22
New Load.BT14024050 Bus1=bus_bt_c14024050.1 phases=1 kW=0.5 pf=0.98 kv=0.22
New Load.BT14303614 Bus1=bus_bt_c14303614.2 phases=1 kW=0.5 pf=0.98 kv=0.22
New Load.BT14313576 Bus1=bus_bt_c14313576.2 phases=1 kW=0.5 pf=0.98 kv=0.22
New Load.BT14299318 Bus1=bus_bt_c14299318.1 phases=1 kW=0.5 pf=0.98 kv=0.22
New Load.BT14228875 Bus1=bus_bt_c14228875.1 phases=1 kW=0.5 pf=0.98 kv=0.22
New Load.BT14220384 Bus1=bus_bt_c14220384.1 phases=1 kW=0.5 pf=0.98 kv=0.22
New Load.BT14271742 Bus1=bus_bt_c14271742.2 phases=1 kW=0.5 pf=0.98 kv=0.22
New Load.BT14208615 Bus1=bus_bt_c14208615.2 phases=1 kW=0.5 pf=0.98 kv=0.22
New Load.BT14071445 Bus1=bus_bt_c14071445.2 phases=1 kW=0.5 pf=0.98 kv=0.22
New Load.BT14253771 Bus1=bus_bt_c14253771.2 phases=1 kW=0.5 pf=0.98 kv=0.22
New Load.BT14074908 Bus1=bus_bt_c14074908.1 phases=1 kW=0.5 pf=0.98 kv=0.22
New Load.BT14060974 Bus1=bus_bt_c14060974.2 phases=1 kW=0.5 pf=0.98 kv=0.22
New Load.BT14294697 Bus1=bus_bt_c14294697.1 phases=1 kW=0.5 pf=0.98 kv=0.22
New Load.BT14103442 Bus1=bus_bt_c14103442.1 phases=1 kW=0.5 pf=0.98 kv=0.22
New Load.BT14041631 Bus1=bus_bt_c14041631.2 phases=1 kW=0.5 pf=0.98 kv=0.22
New Load.BT14086674 Bus1=bus_bt_c14086674.2 phases=1 kW=0.5 pf=0.98 kv=0.22
New Load.BT14094129 Bus1=bus_bt_c14094129.1 phases=1 kW=0.5 pf=0.98 kv=0.22
New Load.BT14082190 Bus1=bus_bt_c14082190.2 phases=1 kW=0.5 pf=0.98 kv=0.22
New Load.BT14143612 Bus1=bus_bt_c14143612.1 phases=1 kW=0.5 pf=0.98 kv=0.22
New Load.BT14160314 Bus1=bus_bt_c14160314.3 phases=1 kW=0.5 pf=0.98 kv=0.22
New Load.BT14310596 Bus1=bus_bt_c14310596.1 phases=1 kW=0.5 pf=0.98 kv=0.22
New Load.BT14284354 Bus1=bus_bt_c14284354.2 phases=1 kW=0.5 pf=0.98 kv=0.22
New Load.BT14199421 Bus1=bus_bt_c14199421.2 phases=1 kW=0.5 pf=0.98 kv=0.22
New Load.BT14187205 Bus1=bus_bt_c14187205.3 phases=1 kW=0.5 pf=0.98 kv=0.22
New Load.BT14174623 Bus1=bus_bt_c14174623.2 phases=1 kW=0.5 pf=0.98 kv=0.22
New Load.BT14209237 Bus1=bus_bt_c14209237.3 phases=1 kW=0.5 pf=0.98 kv=0.22
New Load.BT14047752 Bus1=bus_bt_c14047752.1 phases=1 kW=0.5 pf=0.98 kv=0.22
New Load.BT14195890 Bus1=bus_bt_c14195890.2 phases=1 kW=0.5 pf=0.98 kv=0.22
New Load.BT14021954 Bus1=bus_bt_c14021954.3 phases=1 kW=0.5 pf=0.98 kv=0.22
New Load.BT14212143 Bus1=bus_bt_c14212143.3 phases=1 kW=0.5 pf=0.98 kv=0.22
New Load.BT14086049 Bus1=bus_bt_c14086049.1 phases=1 kW=0.5 pf=0.98 kv=0.22
New Load.BT14227029 Bus1=bus_bt_c14227029.3 phases=1 kW=0.5 pf=0.98 kv=0.22
New Load.BT14136490 Bus1=bus_bt_c14136490.3 phases=1 kW=0.5 pf=0.98 kv=0.22
New Load.BT14327584 Bus1=bus_bt_c14327584.3 phases=1 kW=0.5 pf=0.98 kv=0.22
New Load.BT14121050 Bus1=bus_bt_c14121050.2 phases=1 kW=0.5 pf=0.98 kv=0.22
New Load.BT14151987 Bus1=bus_bt_c14151987.1 phases=1 kW=0.5 pf=0.98 kv=0.22
New Load.BT14198802 Bus1=bus_bt_c14198802.3 phases=1 kW=0.5 pf=0.98 kv=0.22
New Load.BT14079362 Bus1=bus_bt_c14079362.3 phases=1 kW=0.5 pf=0.98 kv=0.22
New Load.BT14286468 Bus1=bus_bt_c14286468.1 phases=1 kW=0.5 pf=0.98 kv=0.22
New Load.BT14227494 Bus1=bus_bt_c14227494.3 phases=1 kW=0.5 pf=0.98 kv=0.22
New Load.BT14174415 Bus1=bus_bt_c14174415.2 phases=1 kW=0.5 pf=0.98 kv=0.22
New Load.BT14076956 Bus1=bus_bt_c14076956.3 phases=1 kW=0.5 pf=0.98 kv=0.22
New Load.BT14237459 Bus1=bus_bt_c14237459.3 phases=1 kW=0.5 pf=0.98 kv=0.22
New Load.BT14281231 Bus1=bus_bt_c14281231.2 phases=1 kW=0.5 pf=0.98 kv=0.22
New Load.BT14322267 Bus1=bus_bt_c14322267.2 phases=1 kW=0.5 pf=0.98 kv=0.22
New Load.BT14174066 Bus1=bus_bt_c14174066.2 phases=1 kW=0.5 pf=0.98 kv=0.22
New Load.BT14141075 Bus1=bus_bt_c14141075.2 phases=1 kW=0.5 pf=0.98 kv=0.22
New Load.BT14039886 Bus1=bus_bt_c14039886.1 phases=1 kW=0.5 pf=0.98 kv=0.22
New Load.BT14249237 Bus1=bus_bt_c14249237.1 phases=1 kW=0.5 pf=0.98 kv=0.22
New Load.BT14302554 Bus1=bus_bt_c14302554.1 phases=1 kW=0.5 pf=0.98 kv=0.22
New Load.BT14168749 Bus1=bus_bt_c14168749.2 phases=1 kW=0.5 pf=0.98 kv=0.22
New Load.BT14030493 Bus1=bus_bt_c14030493.2 phases=1 kW=0.5 pf=0.98 kv=0.22
New Load.BT14091670 Bus1=bus_bt_c14091670.3 phases=1 kW=0.5 pf=0.98 kv=0.22
New Load.BT14185663 Bus1=bus_bt_c14185663.3 phases=1 kW=0.5 pf=0.98 kv=0.22
New Load.BT14177237 Bus1=bus_bt_c14177237.3 phases=1 kW=0.5 pf=0.98 kv=0.22
New Load.BT14022823 Bus1=bus_bt_c14022823.3 phases=1 kW=0.5 pf=0.98 kv=0.22
New Load.BT14238563 Bus1=bus_bt_c14238563.3 phases=1 kW=0.5 pf=0.98 kv=0.22
New Load.BT14087698 Bus1=bus_bt_c14087698.3 phases=1 kW=0.5 pf=0.98 kv=0.22
New Load.BT14058205 Bus1=bus_bt_c14058205.3 phases=1 kW=0.5 pf=0.98 kv=0.22
New Load.BT14165233 Bus1=bus_bt_c14165233.2 phases=1 kW=0.5 pf=0.98 kv=0.22
New Load.BT14089553 Bus1=bus_bt_c14089553.2 phases=1 kW=0.5 pf=0.98 kv=0.22
New Load.BT14033833 Bus1=bus_bt_c14033833.3 phases=1 kW=0.5 pf=0.98 kv=0.22
New Load.BT14129571 Bus1=bus_bt_c14129571.3 phases=1 kW=0.5 pf=0.98 kv=0.22
New Load.BT14184621 Bus1=bus_bt_c14184621.1 phases=1 kW=0.5 pf=0.98 kv=0.22
New Load.BT14093391 Bus1=bus_bt_c14093391.2 phases=1 kW=0.5 pf=0.98 kv=0.22
New Load.BT14181742 Bus1=bus_bt_c14181742.2 phases=1 kW=0.5 pf=0.98 kv=0.22
New Load.BT14195717 Bus1=bus_bt_c14195717.3 phases=1 kW=0.5 pf=0.98 kv=0.22
New Load.BT14271852 Bus1=bus_bt_c14271852.1 phases=1 kW=0.5 pf=0.98 kv=0.22
New Load.BT14329814 Bus1=bus_bt_c14329814.1 phases=1 kW=0.5 pf=0.98 kv=0.22
New Load.BT14265972 Bus1=bus_bt_c14265972.2 phases=1 kW=0.5 pf=0.98 kv=0.22
New Load.BT14301869 Bus1=bus_bt_c14301869.2 phases=1 kW=0.5 pf=0.98 kv=0.22
New Load.BT14221709 Bus1=bus_bt_c14221709.3 phases=1 kW=0.5 pf=0.98 kv=0.22
New Load.BT14208963 Bus1=bus_bt_c14208963.2 phases=1 kW=0.5 pf=0.98 kv=0.22
New Load.BT14310390 Bus1=bus_bt_c14310390.3 phases=1 kW=0.5 pf=0.98 kv=0.22
New Load.BT14257633 Bus1=bus_bt_c14257633.3 phases=1 kW=0.5 pf=0.98 kv=0.22
New Load.BT14223355 Bus1=bus_bt_c14223355.2 phases=1 kW=0.5 pf=0.98 kv=0.22
New Load.BT14066262 Bus1=bus_bt_c14066262.3 phases=1 kW=0.5 pf=0.98 kv=0.22
New Load.BT14287349 Bus1=bus_bt_c14287349.1 phases=1 kW=0.5 pf=0.98 kv=0.22
New Load.BT14252756 Bus1=bus_bt_c14252756.1 phases=1 kW=0.5 pf=0.98 kv=0.22
New Load.BT14186443 Bus1=bus_bt_c14186443.1 phases=1 kW=0.5 pf=0.98 kv=0.22
New Load.BT14115515 Bus1=bus_bt_c14115515.1 phases=1 kW=0.5 pf=0.98 kv=0.22
New Load.BT14210389 Bus1=bus_bt_c14210389.2 phases=1 kW=0.5 pf=0.98 kv=0.22
New Load.BT14184704 Bus1=bus_bt_c14184704.2 phases=1 kW=0.5 pf=0.98 kv=0.22
New Load.BT14198608 Bus1=bus_bt_c14198608.3 phases=1 kW=0.5 pf=0.98 kv=0.22
New Load.BT14329835 Bus1=bus_bt_c14329835.2 phases=1 kW=0.5 pf=0.98 kv=0.22
New Load.BT14039734 Bus1=bus_bt_c14039734.2 phases=1 kW=0.5 pf=0.98 kv=0.22
New Load.BT14252226 Bus1=bus_bt_c14252226.3 phases=1 kW=0.5 pf=0.98 kv=0.22
New Load.BT14070126 Bus1=bus_bt_c14070126.2 phases=1 kW=0.5 pf=0.98 kv=0.22
New Load.BT14304963 Bus1=bus_bt_c14304963.1 phases=1 kW=0.5 pf=0.98 kv=0.22
New Load.BT14292324 Bus1=bus_bt_c14292324.1 phases=1 kW=0.5 pf=0.98 kv=0.22
New Load.BT14142016 Bus1=bus_bt_c14142016.2 phases=1 kW=0.5 pf=0.98 kv=0.22
New Load.BT14099497 Bus1=bus_bt_c14099497.3 phases=1 kW=0.5 pf=0.98 kv=0.22
New Load.BT14104472 Bus1=bus_bt_c14104472.2 phases=1 kW=0.5 pf=0.98 kv=0.22
New Load.BT14331297 Bus1=bus_bt_c14331297.1 phases=1 kW=0.5 pf=0.98 kv=0.22
New Load.BT14171476 Bus1=bus_bt_c14171476.1 phases=1 kW=0.5 pf=0.98 kv=0.22
New Load.BT14276854 Bus1=bus_bt_c14276854.1 phases=1 kW=0.5 pf=0.98 kv=0.22
New Load.BT14287456 Bus1=bus_bt_c14287456.2 phases=1 kW=0.5 pf=0.98 kv=0.22
New Load.BT14316693 Bus1=bus_bt_c14316693.2 phases=1 kW=0.5 pf=0.98 kv=0.22
New Load.BT14332488 Bus1=bus_bt_c14332488.3 phases=1 kW=0.5 pf=0.98 kv=0.22
New Load.BT14313210 Bus1=bus_bt_c14313210.2 phases=1 kW=0.5 pf=0.98 kv=0.22
New Load.BT14131277 Bus1=bus_bt_c14131277.1 phases=1 kW=0.5 pf=0.98 kv=0.22
New Load.BT14168582 Bus1=bus_bt_c14168582.2 phases=1 kW=0.5 pf=0.98 kv=0.22
New Load.BT14227044 Bus1=bus_bt_c14227044.1 phases=1 kW=0.5 pf=0.98 kv=0.22
New Load.BT14307285 Bus1=bus_bt_c14307285.3 phases=1 kW=0.5 pf=0.98 kv=0.22
New Load.BT14215647 Bus1=bus_bt_c14215647.3 phases=1 kW=0.5 pf=0.98 kv=0.22
New Load.BT14319361 Bus1=bus_bt_c14319361.3 phases=1 kW=0.5 pf=0.98 kv=0.22
New Load.BT14168082 Bus1=bus_bt_c14168082.1 phases=1 kW=0.5 pf=0.98 kv=0.22
New Load.BT14170464 Bus1=bus_bt_c14170464.1 phases=1 kW=0.5 pf=0.98 kv=0.22
New Load.BT14199034 Bus1=bus_bt_c14199034.2 phases=1 kW=0.5 pf=0.98 kv=0.22
New Load.BT14126445 Bus1=bus_bt_c14126445.1 phases=1 kW=0.5 pf=0.98 kv=0.22
New Load.BT14205602 Bus1=bus_bt_c14205602.1 phases=1 kW=0.5 pf=0.98 kv=0.22
New Load.BT14315014 Bus1=bus_bt_c14315014.3 phases=1 kW=0.5 pf=0.98 kv=0.22
New Load.BT14304844 Bus1=bus_bt_c14304844.3 phases=1 kW=0.5 pf=0.98 kv=0.22
New Load.BT14109769 Bus1=bus_bt_c14109769.2 phases=1 kW=0.5 pf=0.98 kv=0.22
New Load.BT14073485 Bus1=bus_bt_c14073485.2 phases=1 kW=0.5 pf=0.98 kv=0.22
New Load.BT14087350 Bus1=bus_bt_c14087350.1 phases=1 kW=0.5 pf=0.98 kv=0.22
New Load.BT14044873 Bus1=bus_bt_c14044873.3 phases=1 kW=0.5 pf=0.98 kv=0.22
New Load.BT14172003 Bus1=bus_bt_c14172003.2 phases=1 kW=0.5 pf=0.98 kv=0.22
New Load.BT14240064 Bus1=bus_bt_c14240064.3 phases=1 kW=0.5 pf=0.98 kv=0.22
New Load.BT14157688 Bus1=bus_bt_c14157688.1 phases=1 kW=0.5 pf=0.98 kv=0.22
New Load.BT14089607 Bus1=bus_bt_c14089607.3 phases=1 kW=0.5 pf=0.98 kv=0.22
New Load.BT14331833 Bus1=bus_bt_c14331833.2 phases=1 kW=0.5 pf=0.98 kv=0.22
New Load.BT14071341 Bus1=bus_bt_c14071341.3 phases=1 kW=0.5 pf=0.98 kv=0.22
New Load.BT14235577 Bus1=bus_bt_c14235577.3 phases=1 kW=0.5 pf=0.98 kv=0.22
New Load.BT14150948 Bus1=bus_bt_c14150948.1 phases=1 kW=0.5 pf=0.98 kv=0.22
New Load.BT14236021 Bus1=bus_bt_c14236021.2 phases=1 kW=0.5 pf=0.98 kv=0.22
New Load.BT14296850 Bus1=bus_bt_c14296850.1 phases=1 kW=0.5 pf=0.98 kv=0.22
New Load.BT14212810 Bus1=bus_bt_c14212810.1 phases=1 kW=0.5 pf=0.98 kv=0.22
New Load.BT14134239 Bus1=bus_bt_c14134239.2 phases=1 kW=0.5 pf=0.98 kv=0.22
New Load.BT14123223 Bus1=bus_bt_c14123223.1 phases=1 kW=0.5 pf=0.98 kv=0.22
New Load.BT14100623 Bus1=bus_bt_c14100623.2 phases=1 kW=0.5 pf=0.98 kv=0.22
New Load.BT14138336 Bus1=bus_bt_c14138336.3 phases=1 kW=0.5 pf=0.98 kv=0.22
New Load.BT14090643 Bus1=bus_bt_c14090643.3 phases=1 kW=0.5 pf=0.98 kv=0.22
New Load.BT14329430 Bus1=bus_bt_c14329430.2 phases=1 kW=0.5 pf=0.98 kv=0.22
New Load.BT14028456 Bus1=bus_bt_c14028456.1 phases=1 kW=0.5 pf=0.98 kv=0.22
New Load.BT14284762 Bus1=bus_bt_c14284762.2 phases=1 kW=0.5 pf=0.98 kv=0.22
New Load.BT14192034 Bus1=bus_bt_c14192034.3 phases=1 kW=0.5 pf=0.98 kv=0.22
New Load.BT14135400 Bus1=bus_bt_c14135400.2 phases=1 kW=0.5 pf=0.98 kv=0.22
New Load.BT14246602 Bus1=bus_bt_c14246602.2 phases=1 kW=0.5 pf=0.98 kv=0.22
New Load.BT14057044 Bus1=bus_bt_c14057044.1 phases=1 kW=0.5 pf=0.98 kv=0.22
New Load.BT14086153 Bus1=bus_bt_c14086153.3 phases=1 kW=0.5 pf=0.98 kv=0.22
New Load.BT14102007 Bus1=bus_bt_c14102007.1 phases=1 kW=0.5 pf=0.98 kv=0.22
New Load.BT14246828 Bus1=bus_bt_c14246828.3 phases=1 kW=0.5 pf=0.98 kv=0.22
New Load.BT14232037 Bus1=bus_bt_c14232037.2 phases=1 kW=0.5 pf=0.98 kv=0.22
New Load.BT14324985 Bus1=bus_bt_c14324985.1 phases=1 kW=0.5 pf=0.98 kv=0.22
New Load.BT14093781 Bus1=bus_bt_c14093781.3 phases=1 kW=0.5 pf=0.98 kv=0.22
New Load.BT14111341 Bus1=bus_bt_c14111341.1 phases=1 kW=0.5 pf=0.98 kv=0.22
New Load.BT14325786 Bus1=bus_bt_c14325786.2 phases=1 kW=0.5 pf=0.98 kv=0.22
New Load.BT14051405 Bus1=bus_bt_c14051405.2 phases=1 kW=0.5 pf=0.98 kv=0.22
New Load.BT14271120 Bus1=bus_bt_c14271120.2 phases=1 kW=0.5 pf=0.98 kv=0.22
New Load.BT14207844 Bus1=bus_bt_c14207844.1 phases=1 kW=0.5 pf=0.98 kv=0.22
New Load.BT14229986 Bus1=bus_bt_c14229986.2 phases=1 kW=0.5 pf=0.98 kv=0.22
New Load.BT14079305 Bus1=bus_bt_c14079305.2 phases=1 kW=0.5 pf=0.98 kv=0.22
New Load.BT14307050 Bus1=bus_bt_c14307050.2 phases=1 kW=0.5 pf=0.98 kv=0.22
New Load.BT14060825 Bus1=bus_bt_c14060825.2 phases=1 kW=0.5 pf=0.98 kv=0.22
New Load.BT14127844 Bus1=bus_bt_c14127844.1 phases=1 kW=0.5 pf=0.98 kv=0.22
New Load.BT14240025 Bus1=bus_bt_c14240025.3 phases=1 kW=0.5 pf=0.98 kv=0.22
New Load.BT14294673 Bus1=bus_bt_c14294673.2 phases=1 kW=0.5 pf=0.98 kv=0.22
New Load.BT14089967 Bus1=bus_bt_c14089967.2 phases=1 kW=0.5 pf=0.98 kv=0.22
New Load.BT14094704 Bus1=bus_bt_c14094704.1 phases=1 kW=0.5 pf=0.98 kv=0.22
New Load.BT14061477 Bus1=bus_bt_c14061477.1 phases=1 kW=0.5 pf=0.98 kv=0.22
New Load.BT14063612 Bus1=bus_bt_c14063612.3 phases=1 kW=0.5 pf=0.98 kv=0.22
New Load.BT14086177 Bus1=bus_bt_c14086177.2 phases=1 kW=0.5 pf=0.98 kv=0.22
New Load.BT14135823 Bus1=bus_bt_c14135823.2 phases=1 kW=0.5 pf=0.98 kv=0.22
New Load.BT14195390 Bus1=bus_bt_c14195390.1 phases=1 kW=0.5 pf=0.98 kv=0.22
New Load.BT14112618 Bus1=bus_bt_c14112618.2 phases=1 kW=0.5 pf=0.98 kv=0.22
New Load.BT14205730 Bus1=bus_bt_c14205730.1 phases=1 kW=0.5 pf=0.98 kv=0.22
New Load.BT14060635 Bus1=bus_bt_c14060635.2 phases=1 kW=0.5 pf=0.98 kv=0.22
New Load.BT14119546 Bus1=bus_bt_c14119546.3 phases=1 kW=0.5 pf=0.98 kv=0.22
New Load.BT14148530 Bus1=bus_bt_c14148530.3 phases=1 kW=0.5 pf=0.98 kv=0.22
New Load.BT14220348 Bus1=bus_bt_c14220348.3 phases=1 kW=0.5 pf=0.98 kv=0.22
New Load.BT14234898 Bus1=bus_bt_c14234898.3 phases=1 kW=0.5 pf=0.98 kv=0.22
New Load.BT14247096 Bus1=bus_bt_c14247096.1 phases=1 kW=0.5 pf=0.98 kv=0.22
New Load.BT14183457 Bus1=bus_bt_c14183457.2 phases=1 kW=0.5 pf=0.98 kv=0.22
New Load.BT14199781 Bus1=bus_bt_c14199781.3 phases=1 kW=0.5 pf=0.98 kv=0.22
New Load.BT14231611 Bus1=bus_bt_c14231611.1 phases=1 kW=0.5 pf=0.98 kv=0.22
New Load.BT14156709 Bus1=bus_bt_c14156709.1 phases=1 kW=0.5 pf=0.98 kv=0.22
New Load.BT14080913 Bus1=bus_bt_c14080913.2 phases=1 kW=0.5 pf=0.98 kv=0.22
New Load.BT14137324 Bus1=bus_bt_c14137324.1 phases=1 kW=0.5 pf=0.98 kv=0.22
New Load.BT14154854 Bus1=bus_bt_c14154854.1 phases=1 kW=0.5 pf=0.98 kv=0.22
New Load.BT14286873 Bus1=bus_bt_c14286873.1 phases=1 kW=0.5 pf=0.98 kv=0.22
New Load.BT14254212 Bus1=bus_bt_c14254212.1 phases=1 kW=0.5 pf=0.98 kv=0.22
New Load.BT14078272 Bus1=bus_bt_c14078272.3 phases=1 kW=0.5 pf=0.98 kv=0.22
New Load.BT14149766 Bus1=bus_bt_c14149766.1 phases=1 kW=0.5 pf=0.98 kv=0.22
New Load.BT14303114 Bus1=bus_bt_c14303114.1 phases=1 kW=0.5 pf=0.98 kv=0.22
New Load.BT14315925 Bus1=bus_bt_c14315925.2 phases=1 kW=0.5 pf=0.98 kv=0.22
New Load.BT14249585 Bus1=bus_bt_c14249585.1 phases=1 kW=0.5 pf=0.98 kv=0.22
New Load.BT14156072 Bus1=bus_bt_c14156072.3 phases=1 kW=0.5 pf=0.98 kv=0.22
New Load.BT14211101 Bus1=bus_bt_c14211101.1 phases=1 kW=0.5 pf=0.98 kv=0.22
New Load.BT14277652 Bus1=bus_bt_c14277652.2 phases=1 kW=0.5 pf=0.98 kv=0.22
New Load.BT14251818 Bus1=bus_bt_c14251818.2 phases=1 kW=0.5 pf=0.98 kv=0.22
New Load.BT14310337 Bus1=bus_bt_c14310337.2 phases=1 kW=0.5 pf=0.98 kv=0.22
New Load.BT14207272 Bus1=bus_bt_c14207272.2 phases=1 kW=0.5 pf=0.98 kv=0.22
New Load.BT14259089 Bus1=bus_bt_c14259089.1 phases=1 kW=0.5 pf=0.98 kv=0.22
New Load.BT14230042 Bus1=bus_bt_c14230042.2 phases=1 kW=0.5 pf=0.98 kv=0.22
New Load.BT14025211 Bus1=bus_bt_c14025211.2 phases=1 kW=0.5 pf=0.98 kv=0.22
New Load.BT14048675 Bus1=bus_bt_c14048675.3 phases=1 kW=0.5 pf=0.98 kv=0.22
New Load.BT14191501 Bus1=bus_bt_c14191501.1 phases=1 kW=0.5 pf=0.98 kv=0.22
New Load.BT14062397 Bus1=bus_bt_c14062397.3 phases=1 kW=0.5 pf=0.98 kv=0.22
New Load.BT14141721 Bus1=bus_bt_c14141721.1 phases=1 kW=0.5 pf=0.98 kv=0.22
New Load.BT14082494 Bus1=bus_bt_c14082494.3 phases=1 kW=0.5 pf=0.98 kv=0.22
New Load.BT14164792 Bus1=bus_bt_c14164792.2 phases=1 kW=0.5 pf=0.98 kv=0.22
New Load.BT14145979 Bus1=bus_bt_c14145979.1 phases=1 kW=0.5 pf=0.98 kv=0.22
New Load.BT14067703 Bus1=bus_bt_c14067703.2 phases=1 kW=0.5 pf=0.98 kv=0.22
New Load.BT14154086 Bus1=bus_bt_c14154086.1 phases=1 kW=0.5 pf=0.98 kv=0.22
New Load.BT14327763 Bus1=bus_bt_c14327763.2 phases=1 kW=0.5 pf=0.98 kv=0.22
New Load.BT14091253 Bus1=bus_bt_c14091253.2 phases=1 kW=0.5 pf=0.98 kv=0.22
New Load.BT14166730 Bus1=bus_bt_c14166730.2 phases=1 kW=0.5 pf=0.98 kv=0.22
New Load.BT14194342 Bus1=bus_bt_c14194342.1 phases=1 kW=0.5 pf=0.98 kv=0.22
New Load.BT14192183 Bus1=bus_bt_c14192183.2 phases=1 kW=0.5 pf=0.98 kv=0.22
New Load.BT14267035 Bus1=bus_bt_c14267035.2 phases=1 kW=0.5 pf=0.98 kv=0.22
New Load.BT14073574 Bus1=bus_bt_c14073574.3 phases=1 kW=0.5 pf=0.98 kv=0.22
New Load.BT14314282 Bus1=bus_bt_c14314282.2 phases=1 kW=0.5 pf=0.98 kv=0.22
New Load.BT14194803 Bus1=bus_bt_c14194803.3 phases=1 kW=0.5 pf=0.98 kv=0.22
New Load.BT14219086 Bus1=bus_bt_c14219086.3 phases=1 kW=0.5 pf=0.98 kv=0.22
New Load.BT14075691 Bus1=bus_bt_c14075691.1 phases=1 kW=0.5 pf=0.98 kv=0.22
New Load.BT14180929 Bus1=bus_bt_c14180929.1 phases=1 kW=0.5 pf=0.98 kv=0.22
New Load.BT14204890 Bus1=bus_bt_c14204890.1 phases=1 kW=0.5 pf=0.98 kv=0.22
New Load.BT14120463 Bus1=bus_bt_c14120463.3 phases=1 kW=0.5 pf=0.98 kv=0.22
New Load.BT14103415 Bus1=bus_bt_c14103415.1 phases=1 kW=0.5 pf=0.98 kv=0.22
New Load.BT14239912 Bus1=bus_bt_c14239912.3 phases=1 kW=0.5 pf=0.98 kv=0.22
New Load.BT14330276 Bus1=bus_bt_c14330276.1 phases=1 kW=0.5 pf=0.98 kv=0.22
New Load.BT14060852 Bus1=bus_bt_c14060852.2 phases=1 kW=0.5 pf=0.98 kv=0.22
New Load.BT14153249 Bus1=bus_bt_c14153249.3 phases=1 kW=0.5 pf=0.98 kv=0.22
New Load.BT14189617 Bus1=bus_bt_c14189617.2 phases=1 kW=0.5 pf=0.98 kv=0.22
New Load.BT14104687 Bus1=bus_bt_c14104687.3 phases=1 kW=0.5 pf=0.98 kv=0.22
New Load.BT14172819 Bus1=bus_bt_c14172819.1 phases=1 kW=0.5 pf=0.98 kv=0.22
New Load.BT14160240 Bus1=bus_bt_c14160240.1 phases=1 kW=0.5 pf=0.98 kv=0.22
New Load.BT14069034 Bus1=bus_bt_c14069034.1 phases=1 kW=0.5 pf=0.98 kv=0.22
New Load.BT14161053 Bus1=bus_bt_c14161053.2 phases=1 kW=0.5 pf=0.98 kv=0.22
New Load.BT14161943 Bus1=bus_bt_c14161943.2 phases=1 kW=0.5 pf=0.98 kv=0.22
New Load.BT14322675 Bus1=bus_bt_c14322675.1 phases=1 kW=0.5 pf=0.98 kv=0.22
New Load.BT14261983 Bus1=bus_bt_c14261983.1 phases=1 kW=0.5 pf=0.98 kv=0.22
New Load.BT14096815 Bus1=bus_bt_c14096815.1 phases=1 kW=0.5 pf=0.98 kv=0.22
New Load.BT14250568 Bus1=bus_bt_c14250568.1 phases=1 kW=0.5 pf=0.98 kv=0.22
New Load.BT14110504 Bus1=bus_bt_c14110504.3 phases=1 kW=0.5 pf=0.98 kv=0.22
New Load.BT14025291 Bus1=bus_bt_c14025291.2 phases=1 kW=0.5 pf=0.98 kv=0.22
New Load.BT14290291 Bus1=bus_bt_c14290291.3 phases=1 kW=0.5 pf=0.98 kv=0.22
New Load.BT14303081 Bus1=bus_bt_c14303081.3 phases=1 kW=0.5 pf=0.98 kv=0.22
New Load.BT14322112 Bus1=bus_bt_c14322112.1 phases=1 kW=0.5 pf=0.98 kv=0.22
New Load.BT14063222 Bus1=bus_bt_c14063222.2 phases=1 kW=0.5 pf=0.98 kv=0.22
New Load.BT14316116 Bus1=bus_bt_c14316116.3 phases=1 kW=0.5 pf=0.98 kv=0.22
New Load.BT14254602 Bus1=bus_bt_c14254602.3 phases=1 kW=0.5 pf=0.98 kv=0.22
New Load.BT14105291 Bus1=bus_bt_c14105291.1 phases=1 kW=0.5 pf=0.98 kv=0.22
New Load.BT14164947 Bus1=bus_bt_c14164947.2 phases=1 kW=0.5 pf=0.98 kv=0.22
New Load.BT14200076 Bus1=bus_bt_c14200076.3 phases=1 kW=0.5 pf=0.98 kv=0.22
New Load.BT14022573 Bus1=bus_bt_c14022573.1 phases=1 kW=0.5 pf=0.98 kv=0.22
New Load.BT14155735 Bus1=bus_bt_c14155735.3 phases=1 kW=0.5 pf=0.98 kv=0.22
New Load.BT14274615 Bus1=bus_bt_c14274615.3 phases=1 kW=0.5 pf=0.98 kv=0.22
New Load.BT14288028 Bus1=bus_bt_c14288028.2 phases=1 kW=0.5 pf=0.98 kv=0.22
New Load.BT14076989 Bus1=bus_bt_c14076989.3 phases=1 kW=0.5 pf=0.98 kv=0.22
New Load.BT14060903 Bus1=bus_bt_c14060903.2 phases=1 kW=0.5 pf=0.98 kv=0.22
New Load.BT14024020 Bus1=bus_bt_c14024020.1 phases=1 kW=0.5 pf=0.98 kv=0.22
New Load.BT14191534 Bus1=bus_bt_c14191534.2 phases=1 kW=0.5 pf=0.98 kv=0.22
New Load.BT14150668 Bus1=bus_bt_c14150668.3 phases=1 kW=0.5 pf=0.98 kv=0.22
New Load.BT14228917 Bus1=bus_bt_c14228917.3 phases=1 kW=0.5 pf=0.98 kv=0.22
New Load.BT14246093 Bus1=bus_bt_c14246093.2 phases=1 kW=0.5 pf=0.98 kv=0.22
New Load.BT14237158 Bus1=bus_bt_c14237158.2 phases=1 kW=0.5 pf=0.98 kv=0.22
New Load.BT14044840 Bus1=bus_bt_c14044840.3 phases=1 kW=0.5 pf=0.98 kv=0.22
New Load.BT14021147 Bus1=bus_bt_c14021147.3 phases=1 kW=0.5 pf=0.98 kv=0.22
New Load.BT14125251 Bus1=bus_bt_c14125251.1 phases=1 kW=0.5 pf=0.98 kv=0.22
New Load.BT14211521 Bus1=bus_bt_c14211521.3 phases=1 kW=0.5 pf=0.98 kv=0.22
New Load.BT14321445 Bus1=bus_bt_c14321445.3 phases=1 kW=0.5 pf=0.98 kv=0.22
New Load.BT14303531 Bus1=bus_bt_c14303531.3 phases=1 kW=0.5 pf=0.98 kv=0.22
New Load.BT14131786 Bus1=bus_bt_c14131786.3 phases=1 kW=0.5 pf=0.98 kv=0.22
New Load.BT14257579 Bus1=bus_bt_c14257579.3 phases=1 kW=0.5 pf=0.98 kv=0.22
New Load.BT14154592 Bus1=bus_bt_c14154592.2 phases=1 kW=0.5 pf=0.98 kv=0.22
New Load.BT14182355 Bus1=bus_bt_c14182355.3 phases=1 kW=0.5 pf=0.98 kv=0.22
New Load.BT14200823 Bus1=bus_bt_c14200823.2 phases=1 kW=0.5 pf=0.98 kv=0.22
New Load.BT14310426 Bus1=bus_bt_c14310426.2 phases=1 kW=0.5 pf=0.98 kv=0.22
New Load.BT14101933 Bus1=bus_bt_c14101933.2 phases=1 kW=0.5 pf=0.98 kv=0.22
New Load.BT14331440 Bus1=bus_bt_c14331440.2 phases=1 kW=0.5 pf=0.98 kv=0.22
New Load.BT14088142 Bus1=bus_bt_c14088142.3 phases=1 kW=0.5 pf=0.98 kv=0.22
New Load.BT14202574 Bus1=bus_bt_c14202574.3 phases=1 kW=0.5 pf=0.98 kv=0.22
New Load.BT14298734 Bus1=bus_bt_c14298734.1 phases=1 kW=0.5 pf=0.98 kv=0.22
New Load.BT14020834 Bus1=bus_bt_c14020834.2 phases=1 kW=0.5 pf=0.98 kv=0.22
New Load.BT14058741 Bus1=bus_bt_c14058741.3 phases=1 kW=0.5 pf=0.98 kv=0.22
New Load.BT14261325 Bus1=bus_bt_c14261325.3 phases=1 kW=0.5 pf=0.98 kv=0.22
New Load.BT14215671 Bus1=bus_bt_c14215671.2 phases=1 kW=0.5 pf=0.98 kv=0.22
New Load.BT14088490 Bus1=bus_bt_c14088490.3 phases=1 kW=0.5 pf=0.98 kv=0.22
New Load.BT14209630 Bus1=bus_bt_c14209630.3 phases=1 kW=0.5 pf=0.98 kv=0.22
New Load.BT14148724 Bus1=bus_bt_c14148724.1 phases=1 kW=0.5 pf=0.98 kv=0.22
New Load.BT14098345 Bus1=bus_bt_c14098345.2 phases=1 kW=0.5 pf=0.98 kv=0.22
New Load.BT14068114 Bus1=bus_bt_c14068114.2 phases=1 kW=0.5 pf=0.98 kv=0.22
New Load.BT14154568 Bus1=bus_bt_c14154568.2 phases=1 kW=0.5 pf=0.98 kv=0.22
New Load.BT14042161 Bus1=bus_bt_c14042161.3 phases=1 kW=0.5 pf=0.98 kv=0.22
New Load.BT14173307 Bus1=bus_bt_c14173307.1 phases=1 kW=0.5 pf=0.98 kv=0.22
New Load.BT14065934 Bus1=bus_bt_c14065934.3 phases=1 kW=0.5 pf=0.98 kv=0.22
New Load.BT14259309 Bus1=bus_bt_c14259309.2 phases=1 kW=0.5 pf=0.98 kv=0.22
New Load.BT14170005 Bus1=bus_bt_c14170005.1 phases=1 kW=0.5 pf=0.98 kv=0.22
New Load.BT14228256 Bus1=bus_bt_c14228256.1 phases=1 kW=0.5 pf=0.98 kv=0.22
New Load.BT14252333 Bus1=bus_bt_c14252333.2 phases=1 kW=0.5 pf=0.98 kv=0.22
New Load.BT14333789 Bus1=bus_bt_c14333789.2 phases=1 kW=0.5 pf=0.98 kv=0.22
New Load.BT14229194 Bus1=bus_bt_c14229194.3 phases=1 kW=0.5 pf=0.98 kv=0.22
New Load.BT14029903 Bus1=bus_bt_c14029903.1 phases=1 kW=0.5 pf=0.98 kv=0.22
New Load.BT14090488 Bus1=bus_bt_c14090488.3 phases=1 kW=0.5 pf=0.98 kv=0.22
New Load.BT14101805 Bus1=bus_bt_c14101805.3 phases=1 kW=0.5 pf=0.98 kv=0.22
New Load.BT14056452 Bus1=bus_bt_c14056452.2 phases=1 kW=0.5 pf=0.98 kv=0.22
New Load.BT14035691 Bus1=bus_bt_c14035691.2 phases=1 kW=0.5 pf=0.98 kv=0.22
New Load.BT14070567 Bus1=bus_bt_c14070567.2 phases=1 kW=0.5 pf=0.98 kv=0.22
New Load.BT14155277 Bus1=bus_bt_c14155277.2 phases=1 kW=0.5 pf=0.98 kv=0.22
New Load.BT14246578 Bus1=bus_bt_c14246578.1 phases=1 kW=0.5 pf=0.98 kv=0.22
New Load.BT14303662 Bus1=bus_bt_c14303662.2 phases=1 kW=0.5 pf=0.98 kv=0.22
New Load.BT14054451 Bus1=bus_bt_c14054451.3 phases=1 kW=0.5 pf=0.98 kv=0.22
New Load.BT14118513 Bus1=bus_bt_c14118513.1 phases=1 kW=0.5 pf=0.98 kv=0.22
New Load.BT14214358 Bus1=bus_bt_c14214358.2 phases=1 kW=0.5 pf=0.98 kv=0.22
New Load.BT14326807 Bus1=bus_bt_c14326807.1 phases=1 kW=0.5 pf=0.98 kv=0.22
New Load.BT14195577 Bus1=bus_bt_c14195577.3 phases=1 kW=0.5 pf=0.98 kv=0.22
New Load.BT14182221 Bus1=bus_bt_c14182221.2 phases=1 kW=0.5 pf=0.98 kv=0.22
New Load.BT14059328 Bus1=bus_bt_c14059328.2 phases=1 kW=0.5 pf=0.98 kv=0.22
New Load.BT14234505 Bus1=bus_bt_c14234505.2 phases=1 kW=0.5 pf=0.98 kv=0.22
New Load.BT14112532 Bus1=bus_bt_c14112532.3 phases=1 kW=0.5 pf=0.98 kv=0.22
New Load.BT14183454 Bus1=bus_bt_c14183454.3 phases=1 kW=0.5 pf=0.98 kv=0.22
New Load.BT14209868 Bus1=bus_bt_c14209868.3 phases=1 kW=0.5 pf=0.98 kv=0.22
New Load.BT14206885 Bus1=bus_bt_c14206885.3 phases=1 kW=0.5 pf=0.98 kv=0.22
New Load.BT14068081 Bus1=bus_bt_c14068081.3 phases=1 kW=0.5 pf=0.98 kv=0.22
New Load.BT14284923 Bus1=bus_bt_c14284923.2 phases=1 kW=0.5 pf=0.98 kv=0.22
New Load.BT14208579 Bus1=bus_bt_c14208579.2 phases=1 kW=0.5 pf=0.98 kv=0.22
New Load.BT14303492 Bus1=bus_bt_c14303492.1 phases=1 kW=0.5 pf=0.98 kv=0.22
New Load.BT14108075 Bus1=bus_bt_c14108075.1 phases=1 kW=0.5 pf=0.98 kv=0.22
New Load.BT14224406 Bus1=bus_bt_c14224406.1 phases=1 kW=0.5 pf=0.98 kv=0.22
New Load.BT14113068 Bus1=bus_bt_c14113068.1 phases=1 kW=0.5 pf=0.98 kv=0.22
New Load.BT14060906 Bus1=bus_bt_c14060906.3 phases=1 kW=0.5 pf=0.98 kv=0.22
New Load.BT14046671 Bus1=bus_bt_c14046671.2 phases=1 kW=0.5 pf=0.98 kv=0.22
New Load.BT14323505 Bus1=bus_bt_c14323505.3 phases=1 kW=0.5 pf=0.98 kv=0.22
New Load.BT14095112 Bus1=bus_bt_c14095112.1 phases=1 kW=0.5 pf=0.98 kv=0.22
New Load.BT14189563 Bus1=bus_bt_c14189563.3 phases=1 kW=0.5 pf=0.98 kv=0.22
New Load.BT14200243 Bus1=bus_bt_c14200243.3 phases=1 kW=0.5 pf=0.98 kv=0.22
New Load.BT14079749 Bus1=bus_bt_c14079749.2 phases=1 kW=0.5 pf=0.98 kv=0.22
New Load.BT14077659 Bus1=bus_bt_c14077659.2 phases=1 kW=0.5 pf=0.98 kv=0.22
New Load.BT14014168 Bus1=bus_bt_c14014168.2 phases=1 kW=0.5 pf=0.98 kv=0.22
New Load.BT14106050 Bus1=bus_bt_c14106050.3 phases=1 kW=0.5 pf=0.98 kv=0.22
New Load.BT14187705 Bus1=bus_bt_c14187705.1 phases=1 kW=0.5 pf=0.98 kv=0.22
New Load.BT14092230 Bus1=bus_bt_c14092230.3 phases=1 kW=0.5 pf=0.98 kv=0.22
New Load.BT14309354 Bus1=bus_bt_c14309354.1 phases=1 kW=0.5 pf=0.98 kv=0.22
New Load.BT14309997 Bus1=bus_bt_c14309997.1 phases=1 kW=0.5 pf=0.98 kv=0.22
New Load.BT14160398 Bus1=bus_bt_c14160398.2 phases=1 kW=0.5 pf=0.98 kv=0.22
New Load.BT14206861 Bus1=bus_bt_c14206861.1 phases=1 kW=0.5 pf=0.98 kv=0.22
New Load.BT14289814 Bus1=bus_bt_c14289814.3 phases=1 kW=0.5 pf=0.98 kv=0.22
New Load.BT14331318 Bus1=bus_bt_c14331318.2 phases=1 kW=0.5 pf=0.98 kv=0.22
New Load.BT14023862 Bus1=bus_bt_c14023862.3 phases=1 kW=0.5 pf=0.98 kv=0.22
New Load.BT14044653 Bus1=bus_bt_c14044653.2 phases=1 kW=0.5 pf=0.98 kv=0.22
New Load.BT14286706 Bus1=bus_bt_c14286706.3 phases=1 kW=0.5 pf=0.98 kv=0.22
New Load.BT14166921 Bus1=bus_bt_c14166921.2 phases=1 kW=0.5 pf=0.98 kv=0.22
New Load.BT14288034 Bus1=bus_bt_c14288034.2 phases=1 kW=0.5 pf=0.98 kv=0.22
New Load.BT14061281 Bus1=bus_bt_c14061281.2 phases=1 kW=0.5 pf=0.98 kv=0.22
New Load.BT14065425 Bus1=bus_bt_c14065425.1 phases=1 kW=0.5 pf=0.98 kv=0.22
New Load.BT14145645 Bus1=bus_bt_c14145645.1 phases=1 kW=0.5 pf=0.98 kv=0.22
New Load.BT14150025 Bus1=bus_bt_c14150025.2 phases=1 kW=0.5 pf=0.98 kv=0.22
New Load.BT14253545 Bus1=bus_bt_c14253545.2 phases=1 kW=0.5 pf=0.98 kv=0.22
New Load.BT14088112 Bus1=bus_bt_c14088112.3 phases=1 kW=0.5 pf=0.98 kv=0.22