New Load.3.845301 Bus1=bus_PART_c3.845301.1.2.3 phases=3 kW=12.0 pf=0.98 kv=0.231