New Load.BT14191859 Bus1=bus_bt_c14191859.3 phases=1 kW=0.5 pf=0.98 kv=0.22
New Load.BT14115283 Bus1=bus_bt_c14115283.1 phases=1 kW=0.5 pf=0.98 kv=0.22
New Load.BT14074485 Bus1=bus_bt_c14074485.2 phases=1 kW=0.5 pf=0.98 kv=0.22
New Load.BT14079901 Bus1=bus_bt_c14079901.1 phases=1 kW=0.5 pf=0.98 kv=0.22
New Load.BT14285759 Bus1=bus_bt_c14285759.2 phases=1 kW=0.5 pf=0.98 kv=0.22
New Load.BT14146083 Bus1=bus_bt_c14146083.3 phases=1 kW=0.5 pf=0.98 kv=0.22
New Load.BT14162613 Bus1=bus_bt_c14162613.3 phases=1 kW=0.5 pf=0.98 kv=0.22
New Load.BT14141906 Bus1=bus_bt_c14141906.2 phases=1 kW=0.5 pf=0.98 kv=0.22
New Load.BT14064559 Bus1=bus_bt_c14064559.2 phases=1 kW=0.5 pf=0.98 kv=0.22
New Load.BT14069114 Bus1=bus_bt_c14069114.1 phases=1 kW=0.5 pf=0.98 kv=0.22
New Load.BT14078945 Bus1=bus_bt_c14078945.3 phases=1 kW=0.5 pf=0.98 kv=0.22
New Load.BT14168889 Bus1=bus_bt_c14168889.1 phases=1 kW=0.5 pf=0.98 kv=0.22
New Load.BT14330008 Bus1=bus_bt_c14330008.2 phases=1 kW=0.5 pf=0.98 kv=0.22
New Load.BT14221932 Bus1=bus_bt_c14221932.3 phases=1 kW=0.5 pf=0.98 kv=0.22
New Load.BT14255543 Bus1=bus_bt_c14255543.3 phases=1 kW=0.5 pf=0.98 kv=0.22
New Load.BT14072011 Bus1=bus_bt_c14072011.2 phases=1 kW=0.5 pf=0.98 kv=0.22
New Load.BT14187881 Bus1=bus_bt_c14187881.2 phases=1 kW=0.5 pf=0.98 kv=0.22
New Load.BT14198117 Bus1=bus_bt_c14198117.2 phases=1 kW=0.5 pf=0.98 kv=0.22
New Load.BT14331699 Bus1=bus_bt_c14331699.3 phases=1 kW=0.5 pf=0.98 kv=0.22
New Load.BT14062850 Bus1=bus_bt_c14062850.1 phases=1 kW=0.5 pf=0.98 kv=0.22
New Load.BT14097967 Bus1=bus_bt_c14097967.3 phases=1 kW=0.5 pf=0.98 kv=0.22
New Load.BT14297064 Bus1=bus_bt_c14297064.3 phases=1 kW=0.5 pf=0.98 kv=0.22
New Load.BT14320019 Bus1=bus_bt_c14320019.1 phases=1 kW=0.5 pf=0.98 kv=0.22
New Load.BT14020248 Bus1=bus_bt_c14020248.2 phases=1 kW=0.5 pf=0.98 kv=0.22
New Load.BT14123250 Bus1=bus_bt_c14123250.3 phases=1 kW=0.5 pf=0.98 kv=0.22
New Load.BT14148265 Bus1=bus_bt_c14148265.2 phases=1 kW=0.5 pf=0.98 kv=0.22
New Load.BT14325676 Bus1=bus_bt_c14325676.3 phases=1 kW=0.5 pf=0.98 kv=0.22
New Load.BT14267738 Bus1=bus_bt_c14267738.3 phases=1 kW=0.5 pf=0.98 kv=0.22
New Load.BT14069802 Bus1=bus_bt_c14069802.1 phases=1 kW=0.5 pf=0.98 kv=0.22
New Load.BT14235062 Bus1=bus_bt_c14235062.2 phases=1 kW=0.5 pf=0.98 kv=0.22
New Load.BT14265975 Bus1=bus_bt_c14265975.2 phases=1 kW=0.5 pf=0.98 kv=0.22
New Load.BT14128067 Bus1=bus_bt_c14128067.1 phases=1 kW=0.5 pf=0.98 kv=0.22
New Load.BT14142951 Bus1=bus_bt_c14142951.2 phases=1 kW=0.5 pf=0.98 kv=0.22
New Load.BT14063853 Bus1=bus_bt_c14063853.1 phases=1 kW=0.5 pf=0.98 kv=0.22
New Load.BT14021233 Bus1=bus_bt_c14021233.2 phases=1 kW=0.5 pf=0.98 kv=0.22
New Load.BT14308839 Bus1=bus_bt_c14308839.1 phases=1 kW=0.5 pf=0.98 kv=0.22
New Load.BT14201100 Bus1=bus_bt_c14201100.2 phases=1 kW=0.5 pf=0.98 kv=0.22
New Load.BT14330716 Bus1=bus_bt_c14330716.2 phases=1 kW=0.5 pf=0.98 kv=0.22
New Load.BT14267675 Bus1=bus_bt_c14267675.3 phases=1 kW=0.5 pf=0.98 kv=0.22
New Load.BT14326298 Bus1=bus_bt_c14326298.2 phases=1 kW=0.5 pf=0.98 kv=0.22
New Load.BT14202026 Bus1=bus_bt_c14202026.2 phases=1 kW=0.5 pf=0.98 kv=0.22
New Load.BT14075447 Bus1=bus_bt_c14075447.2 phases=1 kW=0.5 pf=0.98 kv=0.22
New Load.BT14234913 Bus1=bus_bt_c14234913.1 phases=1 kW=0.5 pf=0.98 kv=0.22
New Load.BT14260673 Bus1=bus_bt_c14260673.1 phases=1 kW=0.5 pf=0.98 kv=0.22
New Load.BT14106187 Bus1=bus_bt_c14106187.3 phases=1 kW=0.5 pf=0.98 kv=0.22
New Load.BT14237795 Bus1=bus_bt_c14237795.3 phases=1 kW=0.5 pf=0.98 kv=0.22
New Load.BT14081845 Bus1=bus_bt_c14081845.1 phases=1 kW=0.5 pf=0.98 kv=0.22
New Load.BT14279004 Bus1=bus_bt_c14279004.1 phases=1 kW=0.5 pf=0.98 kv=0.22
New Load.BT14134153 Bus1=bus_bt_c14134153.3 phases=1 kW=0.5 pf=0.98 kv=0.22
New Load.BT14227839 Bus1=bus_bt_c14227839.1 phases=1 kW=0.5 pf=0.98 kv=0.22
New Load.BT14053373 Bus1=bus_bt_c14053373.3 phases=1 kW=0.5 pf=0.98 kv=0.22
New Load.BT14281100 Bus1=bus_bt_c14281100.2 phases=1 kW=0.5 pf=0.98 kv=0.22
New Load.BT14302971 Bus1=bus_bt_c14302971.1 phases=1 kW=0.5 pf=0.98 kv=0.22
New Load.BT14131101 Bus1=bus_bt_c14131101.3 phases=1 kW=0.5 pf=0.98 kv=0.22
New Load.BT14078341 Bus1=bus_bt_c14078341.2 phases=1 kW=0.5 pf=0.98 kv=0.22
New Load.BT14217806 Bus1=bus_bt_c14217806.2 phases=1 kW=0.5 pf=0.98 kv=0.22
New Load.BT14164244 Bus1=bus_bt_c14164244.3 phases=1 kW=0.5 pf=0.98 kv=0.22
New Load.BT14133596 Bus1=bus_bt_c14133596.2 phases=1 kW=0.5 pf=0.98 kv=0.22
New Load.BT14028504 Bus1=bus_bt_c14028504.1 phases=1 kW=0.5 pf=0.98 kv=0.22
New Load.BT14290859 Bus1=bus_bt_c14290859.1 phases=1 kW=0.5 pf=0.98 kv=0.22
New Load.BT14141962 Bus1=bus_bt_c14141962.2 phases=1 kW=0.5 pf=0.98 kv=0.22
New Load.BT14191445 Bus1=bus_bt_c14191445.1 phases=1 kW=0.5 pf=0.98 kv=0.22
New Load.BT14199195 Bus1=bus_bt_c14199195.2 phases=1 kW=0.5 pf=0.98 kv=0.22
New Load.BT14206051 Bus1=bus_bt_c14206051.3 phases=1 kW=0.5 pf=0.98 kv=0.22
New Load.BT14264442 Bus1=bus_bt_c14264442.3 phases=1 kW=0.5 pf=0.98 kv=0.22
New Load.BT14052429 Bus1=bus_bt_c14052429.3 phases=1 kW=0.5 pf=0.98 kv=0.22
New Load.BT14071752 Bus1=bus_bt_c14071752.3 phases=1 kW=0.5 pf=0.98 kv=0.22
New Load.BT14275738 Bus1=bus_bt_c14275738.3 phases=1 kW=0.5 pf=0.98 kv=0.22
New Load.BT14293783 Bus1=bus_bt_c14293783.2 phases=1 kW=0.5 pf=0.98 kv=0.22
New Load.BT14224174 Bus1=bus_bt_c14224174.2 phases=1 kW=0.5 pf=0.98 kv=0.22
New Load.BT14121068 Bus1=bus_bt_c14121068.2 phases=1 kW=0.5 pf=0.98 kv=0.22
New Load.BT14044227 Bus1=bus_bt_c14044227.1 phases=1 kW=0.5 pf=0.98 kv=0.22
New Load.BT14312448 Bus1=bus_bt_c14312448.2 phases=1 kW=0.5 pf=0.98 kv=0.22
New Load.BT14166120 Bus1=bus_bt_c14166120.3 phases=1 kW=0.5 pf=0.98 kv=0.22
New Load.BT14052078 Bus1=bus_bt_c14052078.2 phases=1 kW=0.5 pf=0.98 kv=0.22
New Load.BT14181185 Bus1=bus_bt_c14181185.3 phases=1 kW=0.5 pf=0.98 kv=0.22
New Load.BT14025762 Bus1=bus_bt_c14025762.2 phases=1 kW=0.5 pf=0.98 kv=0.22
New Load.BT14056312 Bus1=bus_bt_c14056312.1 phases=1 kW=0.5 pf=0.98 kv=0.22
New Load.BT14248549 Bus1=bus_bt_c14248549.1 phases=1 kW=0.5 pf=0.98 kv=0.22
New Load.BT14303355 Bus1=bus_bt_c14303355.1 phases=1 kW=0.5 pf=0.98 kv=0.22
New Load.BT14159841 Bus1=bus_bt_c14159841.2 phases=1 kW=0.5 pf=0.98 kv=0.22
New Load.BT14326908 Bus1=bus_bt_c14326908.2 phases=1 kW=0.5 pf=0.98 kv=0.22
New Load.BT14014326 Bus1=bus_bt_c14014326.1 phases=1 kW=0.5 pf=0.98 kv=0.22
New Load.BT14208609 Bus1=bus_bt_c14208609.2 phases=1 kW=0.5 pf=0.98 kv=0.22
New Load.BT14258505 Bus1=bus_bt_c14258505.2 phases=1 kW=0.5 pf=0.98 kv=0.22
New Load.BT14109915 Bus1=bus_bt_c14109915.2 phases=1 kW=0.5 pf=0.98 kv=0.22
New Load.BT14192424 Bus1=bus_bt_c14192424.2 phases=1 kW=0.5 pf=0.98 kv=0.22
New Load.BT14084715 Bus1=bus_bt_c14084715.3 phases=1 kW=0.5 pf=0.98 kv=0.22
New Load.BT14318566 Bus1=bus_bt_c14318566.1 phases=1 kW=0.5 pf=0.98 kv=0.22
New Load.BT14232418 Bus1=bus_bt_c14232418.1 phases=1 kW=0.5 pf=0.98 kv=0.22
New Load.BT14091286 Bus1=bus_bt_c14091286.1 phases=1 kW=0.5 pf=0.98 kv=0.22
New Load.BT14153309 Bus1=bus_bt_c14153309.2 phases=1 kW=0.5 pf=0.98 kv=0.22
New Load.BT14320704 Bus1=bus_bt_c14320704.3 phases=1 kW=0.5 pf=0.98 kv=0.22
New Load.BT14255659 Bus1=bus_bt_c14255659.3 phases=1 kW=0.5 pf=0.98 kv=0.22
New Load.BT14143180 Bus1=bus_bt_c14143180.1 phases=1 kW=0.5 pf=0.98 kv=0.22
New Load.BT14328266 Bus1=bus_bt_c14328266.1 phases=1 kW=0.5 pf=0.98 kv=0.22
New Load.BT14073083 Bus1=bus_bt_c14073083.2 phases=1 kW=0.5 pf=0.98 kv=0.22
New Load.BT14155065 Bus1=bus_bt_c14155065.1 phases=1 kW=0.5 pf=0.98 kv=0.22
New Load.BT14023984 Bus1=bus_bt_c14023984.2 phases=1 kW=0.5 pf=0.98 kv=0.22
New Load.BT14160660 Bus1=bus_bt_c14160660.2 phases=1 kW=0.5 pf=0.98 kv=0.22
New Load.BT14062582 Bus1=bus_bt_c14062582.1 phases=1 kW=0.5 pf=0.98 kv=0.22
New Load.BT14063791 Bus1=bus_bt_c14063791.1 phases=1 kW=0.5 pf=0.98 kv=0.22
New Load.BT14227366 Bus1=bus_bt_c14227366.2 phases=1 kW=0.5 pf=0.98 kv=0.22
New Load.BT14080699 Bus1=bus_bt_c14080699.1 phases=1 kW=0.5 pf=0.98 kv=0.22
New Load.BT14272195 Bus1=bus_bt_c14272195.3 phases=1 kW=0.5 pf=0.98 kv=0.22
New Load.BT14306907 Bus1=bus_bt_c14306907.3 phases=1 kW=0.5 pf=0.98 kv=0.22
New Load.BT14301420 Bus1=bus_bt_c14301420.1 phases=1 kW=0.5 pf=0.98 kv=0.22
New Load.BT14028444 Bus1=bus_bt_c14028444.2 phases=1 kW=0.5 pf=0.98 kv=0.22
New Load.BT14326983 Bus1=bus_bt_c14326983.2 phases=1 kW=0.5 pf=0.98 kv=0.22
New Load.BT14136660 Bus1=bus_bt_c14136660.1 phases=1 kW=0.5 pf=0.98 kv=0.22
New Load.BT14142692 Bus1=bus_bt_c14142692.2 phases=1 kW=0.5 pf=0.98 kv=0.22
New Load.BT14068846 Bus1=bus_bt_c14068846.3 phases=1 kW=0.5 pf=0.98 kv=0.22
New Load.BT14149888 Bus1=bus_bt_c14149888.3 phases=1 kW=0.5 pf=0.98 kv=0.22
New Load.BT14053251 Bus1=bus_bt_c14053251.1 phases=1 kW=0.5 pf=0.98 kv=0.22
New Load.BT14248192 Bus1=bus_bt_c14248192.2 phases=1 kW=0.5 pf=0.98 kv=0.22
New Load.BT14172566 Bus1=bus_bt_c14172566.2 phases=1 kW=0.5 pf=0.98 kv=0.22
New Load.BT14320638 Bus1=bus_bt_c14320638.3 phases=1 kW=0.5 pf=0.98 kv=0.22
New Load.BT14190197 Bus1=bus_bt_c14190197.2 phases=1 kW=0.5 pf=0.98 kv=0.22
New Load.BT14249517 Bus1=bus_bt_c14249517.3 phases=1 kW=0.5 pf=0.98 kv=0.22
New Load.BT14121666 Bus1=bus_bt_c14121666.2 phases=1 kW=0.5 pf=0.98 kv=0.22
New Load.BT14251354 Bus1=bus_bt_c14251354.1 phases=1 kW=0.5 pf=0.98 kv=0.22
New Load.BT14191674 Bus1=bus_bt_c14191674.1 phases=1 kW=0.5 pf=0.98 kv=0.22
New Load.BT14080541 Bus1=bus_bt_c14080541.3 phases=1 kW=0.5 pf=0.98 kv=0.22
New Load.BT14143826 Bus1=bus_bt_c14143826.3 phases=1 kW=0.5 pf=0.98 kv=0.22
New Load.BT14232445 Bus1=bus_bt_c14232445.2 phases=1 kW=0.5 pf=0.98 kv=0.22
New Load.BT14098220 Bus1=bus_bt_c14098220.2 phases=1 kW=0.5 pf=0.98 kv=0.22
New Load.BT14327167 Bus1=bus_bt_c14327167.3 phases=1 kW=0.5 pf=0.98 kv=0.22
New Load.BT14118159 Bus1=bus_bt_c14118159.1 phases=1 kW=0.5 pf=0.98 kv=0.22
New Load.BT14320799 Bus1=bus_bt_c14320799.3 phases=1 kW=0.5 pf=0.98 kv=0.22
New Load.BT14035054 Bus1=bus_bt_c14035054.2 phases=1 kW=0.5 pf=0.98 kv=0.22
New Load.BT14223150 Bus1=bus_bt_c14223150.3 phases=1 kW=0.5 pf=0.98 kv=0.22
New Load.BT14245938 Bus1=bus_bt_c14245938.1 phases=1 kW=0.5 pf=0.98 kv=0.22
New Load.BT14191284 Bus1=bus_bt_c14191284.1 phases=1 kW=0.5 pf=0.98 kv=0.22
New Load.BT14020873 Bus1=bus_bt_c14020873.2 phases=1 kW=0.5 pf=0.98 kv=0.22
New Load.BT14111475 Bus1=bus_bt_c14111475.1 phases=1 kW=0.5 pf=0.98 kv=0.22
New Load.BT14056499 Bus1=bus_bt_c14056499.1 phases=1 kW=0.5 pf=0.98 kv=0.22
New Load.BT14064440 Bus1=bus_bt_c14064440.2 phases=1 kW=0.5 pf=0.98 kv=0.22
New Load.BT14231135 Bus1=bus_bt_c14231135.2 phases=1 kW=0.5 pf=0.98 kv=0.22
New Load.BT14286024 Bus1=bus_bt_c14286024.2 phases=1 kW=0.5 pf=0.98 kv=0.22
New Load.BT14157903 Bus1=bus_bt_c14157903.1 phases=1 kW=0.5 pf=0.98 kv=0.22
New Load.BT14042092 Bus1=bus_bt_c14042092.1 phases=1 kW=0.5 pf=0.98 kv=0.22
New Load.BT14112020 Bus1=bus_bt_c14112020.3 phases=1 kW=0.5 pf=0.98 kv=0.22
New Load.BT14297868 Bus1=bus_bt_c14297868.2 phases=1 kW=0.5 pf=0.98 kv=0.22
New Load.BT14063511 Bus1=bus_bt_c14063511.3 phases=1 kW=0.5 pf=0.98 kv=0.22
New Load.BT14150662 Bus1=bus_bt_c14150662.2 phases=1 kW=0.5 pf=0.98 kv=0.22
New Load.BT14166385 Bus1=bus_bt_c14166385.2 phases=1 kW=0.5 pf=0.98 kv=0.22
New Load.BT14329311 Bus1=bus_bt_c14329311.2 phases=1 kW=0.5 pf=0.98 kv=0.22
New Load.BT14298737 Bus1=bus_bt_c14298737.1 phases=1 kW=0.5 pf=0.98 kv=0.22
New Load.BT14149870 Bus1=bus_bt_c14149870.2 phases=1 kW=0.5 pf=0.98 kv=0.22
New Load.BT14087088 Bus1=bus_bt_c14087088.2 phases=1 kW=0.5 pf=0.98 kv=0.22
New Load.BT14329600 Bus1=bus_bt_c14329600.2 phases=1 kW=0.5 pf=0.98 kv=0.22
New Load.BT14065220 Bus1=bus_bt_c14065220.3 phases=1 kW=0.5 pf=0.98 kv=0.22
New Load.BT14116578 Bus1=bus_bt_c14116578.1 phases=1 kW=0.5 pf=0.98 kv=0.22
New Load.BT14099569 Bus1=bus_bt_c14099569.3 phases=1 kW=0.5 pf=0.98 kv=0.22
New Load.BT14333875 Bus1=bus_bt_c14333875.2 phases=1 kW=0.5 pf=0.98 kv=0.22
New Load.BT14281338 Bus1=bus_bt_c14281338.1 phases=1 kW=0.5 pf=0.98 kv=0.22
New Load.BT14191552 Bus1=bus_bt_c14191552.2 phases=1 kW=0.5 pf=0.98 kv=0.22
New Load.BT14192237 Bus1=bus_bt_c14192237.2 phases=1 kW=0.5 pf=0.98 kv=0.22
New Load.BT14022737 Bus1=bus_bt_c14022737.1 phases=1 kW=0.5 pf=0.98 kv=0.22
New Load.BT14329302 Bus1=bus_bt_c14329302.1 phases=1 kW=0.5 pf=0.98 kv=0.22
New Load.BT14153624 Bus1=bus_bt_c14153624.2 phases=1 kW=0.5 pf=0.98 kv=0.22
New Load.BT14233499 Bus1=bus_bt_c14233499.3 phases=1 kW=0.5 pf=0.98 kv=0.22
New Load.BT14086436 Bus1=bus_bt_c14086436.3 phases=1 kW=0.5 pf=0.98 kv=0.22
New Load.BT14116923 Bus1=bus_bt_c14116923.2 phases=1 kW=0.5 pf=0.98 kv=0.22
New Load.BT14329662 Bus1=bus_bt_c14329662.1 phases=1 kW=0.5 pf=0.98 kv=0.22
New Load.BT14212509 Bus1=bus_bt_c14212509.3 phases=1 kW=0.5 pf=0.98 kv=0.22
New Load.BT14301304 Bus1=bus_bt_c14301304.3 phases=1 kW=0.5 pf=0.98 kv=0.22
New Load.BT14054689 Bus1=bus_bt_c14054689.3 phases=1 kW=0.5 pf=0.98 kv=0.22
New Load.BT14079371 Bus1=bus_bt_c14079371.2 phases=1 kW=0.5 pf=0.98 kv=0.22
New Load.BT14313049 Bus1=bus_bt_c14313049.3 phases=1 kW=0.5 pf=0.98 kv=0.22
New Load.BT14267401 Bus1=bus_bt_c14267401.2 phases=1 kW=0.5 pf=0.98 kv=0.22
New Load.BT14158909 Bus1=bus_bt_c14158909.3 phases=1 kW=0.5 pf=0.98 kv=0.22
New Load.BT14230209 Bus1=bus_bt_c14230209.3 phases=1 kW=0.5 pf=0.98 kv=0.22
New Load.BT14164584 Bus1=bus_bt_c14164584.3 phases=1 kW=0.5 pf=0.98 kv=0.22
New Load.BT14164646 Bus1=bus_bt_c14164646.2 phases=1 kW=0.5 pf=0.98 kv=0.22
New Load.BT14329043 Bus1=bus_bt_c14329043.2 phases=1 kW=0.5 pf=0.98 kv=0.22
New Load.BT14158245 Bus1=bus_bt_c14158245.1 phases=1 kW=0.5 pf=0.98 kv=0.22
New Load.BT14182882 Bus1=bus_bt_c14182882.3 phases=1 kW=0.5 pf=0.98 kv=0.22
New Load.BT14113211 Bus1=bus_bt_c14113211.3 phases=1 kW=0.5 pf=0.98 kv=0.22
New Load.BT14070695 Bus1=bus_bt_c14070695.1 phases=1 kW=0.5 pf=0.98 kv=0.22
New Load.BT14310956 Bus1=bus_bt_c14310956.1 phases=1 kW=0.5 pf=0.98 kv=0.22
New Load.BT14238429 Bus1=bus_bt_c14238429.2 phases=1 kW=0.5 pf=0.98 kv=0.22
New Load.BT14302822 Bus1=bus_bt_c14302822.3 phases=1 kW=0.5 pf=0.98 kv=0.22
New Load.BT14073589 Bus1=bus_bt_c14073589.1 phases=1 kW=0.5 pf=0.98 kv=0.22
New Load.BT14312668 Bus1=bus_bt_c14312668.3 phases=1 kW=0.5 pf=0.98 kv=0.22
New Load.BT14306785 Bus1=bus_bt_c14306785.2 phases=1 kW=0.5 pf=0.98 kv=0.22
New Load.BT14167475 Bus1=bus_bt_c14167475.2 phases=1 kW=0.5 pf=0.98 kv=0.22
New Load.BT14319343 Bus1=bus_bt_c14319343.3 phases=1 kW=0.5 pf=0.98 kv=0.22
New Load.BT14179357 Bus1=bus_bt_c14179357.2 phases=1 kW=0.5 pf=0.98 kv=0.22
New Load.BT14186470 Bus1=bus_bt_c14186470.2 phases=1 kW=0.5 pf=0.98 kv=0.22
New Load.BT14189849 Bus1=bus_bt_c14189849.3 phases=1 kW=0.5 pf=0.98 kv=0.22
New Load.BT14198325 Bus1=bus_bt_c14198325.3 phases=1 kW=0.5 pf=0.98 kv=0.22
New Load.BT14038296 Bus1=bus_bt_c14038296.1 phases=1 kW=0.5 pf=0.98 kv=0.22
New Load.BT14085742 Bus1=bus_bt_c14085742.2 phases=1 kW=0.5 pf=0.98 kv=0.22
New Load.BT14253950 Bus1=bus_bt_c14253950.3 phases=1 kW=0.5 pf=0.98 kv=0.22
New Load.BT14259565 Bus1=bus_bt_c14259565.3 phases=1 kW=0.5 pf=0.98 kv=0.22
New Load.BT14329924 Bus1=bus_bt_c14329924.1 phases=1 kW=0.5 pf=0.98 kv=0.22
New Load.BT14206519 Bus1=bus_bt_c14206519.3 phases=1 kW=0.5 pf=0.98 kv=0.22
New Load.BT14121193 Bus1=bus_bt_c14121193.2 phases=1 kW=0.5 pf=0.98 kv=0.22
New Load.BT14096538 Bus1=bus_bt_c14096538.3 phases=1 kW=0.5 pf=0.98 kv=0.22
New Load.BT14067235 Bus1=bus_bt_c14067235.1 phases=1 kW=0.5 pf=0.98 kv=0.22
New Load.BT14101123 Bus1=bus_bt_c14101123.1 phases=1 kW=0.5 pf=0.98 kv=0.22
New Load.BT14284360 Bus1=bus_bt_c14284360.1 phases=1 kW=0.5 pf=0.98 kv=0.22
New Load.BT14159713 Bus1=bus_bt_c14159713.3 phases=1 kW=0.5 pf=0.98 kv=0.22
New Load.BT14118573 Bus1=bus_bt_c14118573.1 phases=1 kW=0.5 pf=0.98 kv=0.22
New Load.BT14178092 Bus1=bus_bt_c14178092.1 phases=1 kW=0.5 pf=0.98 kv=0.22
New Load.BT14068102 Bus1=bus_bt_c14068102.1 phases=1 kW=0.5 pf=0.98 kv=0.22
New Load.BT14199632 Bus1=bus_bt_c14199632.1 phases=1 kW=0.5 pf=0.98 kv=0.22
New Load.BT14210931 Bus1=bus_bt_c14210931.1 phases=1 kW=0.5 pf=0.98 kv=0.22
New Load.BT14075780 Bus1=bus_bt_c14075780.2 phases=1 kW=0.5 pf=0.98 kv=0.22
New Load.BT14235568 Bus1=bus_bt_c14235568.2 phases=1 kW=0.5 pf=0.98 kv=0.22
New Load.BT14083625 Bus1=bus_bt_c14083625.2 phases=1 kW=0.5 pf=0.98 kv=0.22
New Load.BT14290383 Bus1=bus_bt_c14290383.3 phases=1 kW=0.5 pf=0.98 kv=0.22
New Load.BT14064243 Bus1=bus_bt_c14064243.2 phases=1 kW=0.5 pf=0.98 kv=0.22
New Load.BT14041985 Bus1=bus_bt_c14041985.2 phases=1 kW=0.5 pf=0.98 kv=0.22
New Load.BT14049369 Bus1=bus_bt_c14049369.1 phases=1 kW=0.5 pf=0.98 kv=0.22
New Load.BT14020185 Bus1=bus_bt_c14020185.1 phases=1 kW=0.5 pf=0.98 kv=0.22
New Load.BT14081708 Bus1=bus_bt_c14081708.2 phases=1 kW=0.5 pf=0.98 kv=0.22
New Load.BT14243360 Bus1=bus_bt_c14243360.3 phases=1 kW=0.5 pf=0.98 kv=0.22
New Load.BT14235360 Bus1=bus_bt_c14235360.1 phases=1 kW=0.5 pf=0.98 kv=0.22
New Load.BT14061394 Bus1=bus_bt_c14061394.3 phases=1 kW=0.5 pf=0.98 kv=0.22
New Load.BT14256052 Bus1=bus_bt_c14256052.1 phases=1 kW=0.5 pf=0.98 kv=0.22
New Load.BT14092489 Bus1=bus_bt_c14092489.3 phases=1 kW=0.5 pf=0.98 kv=0.22
New Load.BT14068039 Bus1=bus_bt_c14068039.1 phases=1 kW=0.5 pf=0.98 kv=0.22
New Load.BT14095317 Bus1=bus_bt_c14095317.2 phases=1 kW=0.5 pf=0.98 kv=0.22
New Load.BT14053290 Bus1=bus_bt_c14053290.2 phases=1 kW=0.5 pf=0.98 kv=0.22
New Load.BT14273058 Bus1=bus_bt_c14273058.1 phases=1 kW=0.5 pf=0.98 kv=0.22
New Load.BT14097961 Bus1=bus_bt_c14097961.1 phases=1 kW=0.5 pf=0.98 kv=0.22
New Load.BT14221307 Bus1=bus_bt_c14221307.3 phases=1 kW=0.5 pf=0.98 kv=0.22
New Load.BT14106750 Bus1=bus_bt_c14106750.3 phases=1 kW=0.5 pf=0.98 kv=0.22
New Load.BT14077632 Bus1=bus_bt_c14077632.3 phases=1 kW=0.5 pf=0.98 kv=0.22
New Load.BT14309259 Bus1=bus_bt_c14309259.2 phases=1 kW=0.5 pf=0.98 kv=0.22
New Load.BT14311620 Bus1=bus_bt_c14311620.2 phases=1 kW=0.5 pf=0.98 kv=0.22
New Load.BT14128660 Bus1=bus_bt_c14128660.2 phases=1 kW=0.5 pf=0.98 kv=0.22
New Load.BT14162446 Bus1=bus_bt_c14162446.3 phases=1 kW=0.5 pf=0.98 kv=0.22
New Load.BT14018878 Bus1=bus_bt_c14018878.2 phases=1 kW=0.5 pf=0.98 kv=0.22
New Load.BT14081330 Bus1=bus_bt_c14081330.3 phases=1 kW=0.5 pf=0.98 kv=0.22
New Load.BT14285253 Bus1=bus_bt_c14285253.1 phases=1 kW=0.5 pf=0.98 kv=0.22
New Load.BT14237170 Bus1=bus_bt_c14237170.2 phases=1 kW=0.5 pf=0.98 kv=0.22
New Load.BT14163274 Bus1=bus_bt_c14163274.1 phases=1 kW=0.5 pf=0.98 kv=0.22
New Load.BT14304311 Bus1=bus_bt_c14304311.3 phases=1 kW=0.5 pf=0.98 kv=0.22
New Load.BT14166888 Bus1=bus_bt_c14166888.2 phases=1 kW=0.5 pf=0.98 kv=0.22
New Load.BT14131524 Bus1=bus_bt_c14131524.3 phases=1 kW=0.5 pf=0.98 kv=0.22
New Load.BT14063451 Bus1=bus_bt_c14063451.3 phases=1 kW=0.5 pf=0.98 kv=0.22
New Load.BT14264266 Bus1=bus_bt_c14264266.3 phases=1 kW=0.5 pf=0.98 kv=0.22
New Load.BT14144529 Bus1=bus_bt_c14144529.1 phases=1 kW=0.5 pf=0.98 kv=0.22
New Load.BT14169895 Bus1=bus_bt_c14169895.3 phases=1 kW=0.5 pf=0.98 kv=0.22
New Load.BT14327739 Bus1=bus_bt_c14327739.3 phases=1 kW=0.5 pf=0.98 kv=0.22
New Load.BT14193874 Bus1=bus_bt_c14193874.3 phases=1 kW=0.5 pf=0.98 kv=0.22
New Load.BT14029924 Bus1=bus_bt_c14029924.1 phases=1 kW=0.5 pf=0.98 kv=0.22
New Load.BT14083292 Bus1=bus_bt_c14083292.1 phases=1 kW=0.5 pf=0.98 kv=0.22
New Load.BT14243583 Bus1=bus_bt_c14243583.1 phases=1 kW=0.5 pf=0.98 kv=0.22
New Load.BT14064511 Bus1=bus_bt_c14064511.3 phases=1 kW=0.5 pf=0.98 kv=0.22
New Load.BT14056106 Bus1=bus_bt_c14056106.3 phases=1 kW=0.5 pf=0.98 kv=0.22
New Load.BT14234678 Bus1=bus_bt_c14234678.2 phases=1 kW=0.5 pf=0.98 kv=0.22
New Load.BT14307779 Bus1=bus_bt_c14307779.1 phases=1 kW=0.5 pf=0.98 kv=0.22
New Load.BT14209234 Bus1=bus_bt_c14209234.3 phases=1 kW=0.5 pf=0.98 kv=0.22
New Load.BT14085662 Bus1=bus_bt_c14085662.2 phases=1 kW=0.5 pf=0.98 kv=0.22
New Load.BT14281088 Bus1=bus_bt_c14281088.3 phases=1 kW=0.5 pf=0.98 kv=0.22
New Load.BT14032062 Bus1=bus_bt_c14032062.1 phases=1 kW=0.5 pf=0.98 kv=0.22
New Load.BT14150379 Bus1=bus_bt_c14150379.1 phases=1 kW=0.5 pf=0.98 kv=0.22
New Load.BT14209853 Bus1=bus_bt_c14209853.1 phases=1 kW=0.5 pf=0.98 kv=0.22
New Load.BT14184847 Bus1=bus_bt_c14184847.3 phases=1 kW=0.5 pf=0.98 kv=0.22
New Load.BT14309700 Bus1=bus_bt_c14309700.1 phases=1 kW=0.5 pf=0.98 kv=0.22
New Load.BT14031859 Bus1=bus_bt_c14031859.3 phases=1 kW=0.5 pf=0.98 kv=0.22
New Load.BT14085736 Bus1=bus_bt_c14085736.1 phases=1 kW=0.5 pf=0.98 kv=0.22
New Load.BT14253188 Bus1=bus_bt_c14253188.3 phases=1 kW=0.5 pf=0.98 kv=0.22
New Load.BT14076149 Bus1=bus_bt_c14076149.1 phases=1 kW=0.5 pf=0.98 kv=0.22
New Load.BT14277801 Bus1=bus_bt_c14277801.1 phases=1 kW=0.5 pf=0.98 kv=0.22
New Load.BT14235991 Bus1=bus_bt_c14235991.1 phases=1 kW=0.5 pf=0.98 kv=0.22
New Load.BT14319840 Bus1=bus_bt_c14319840.1 phases=1 kW=0.5 pf=0.98 kv=0.22
New Load.BT14017955 Bus1=bus_bt_c14017955.2 phases=1 kW=0.5 pf=0.98 kv=0.22
New Load.BT14310078 Bus1=bus_bt_c14310078.1 phases=1 kW=0.5 pf=0.98 kv=0.22
New Load.BT14138172 Bus1=bus_bt_c14138172.3 phases=1 kW=0.5 pf=0.98 kv=0.22
New Load.BT14225246 Bus1=bus_bt_c14225246.3 phases=1 kW=0.5 pf=0.98 kv=0.22
New Load.BT14162089 Bus1=bus_bt_c14162089.1 phases=1 kW=0.5 pf=0.98 kv=0.22
New Load.BT14059450 Bus1=bus_bt_c14059450.1 phases=1 kW=0.5 pf=0.98 kv=0.22
New Load.BT14238495 Bus1=bus_bt_c14238495.3 phases=1 kW=0.5 pf=0.98 kv=0.22
New Load.BT14327977 Bus1=bus_bt_c14327977.2 phases=1 kW=0.5 pf=0.98 kv=0.22
New Load.BT14282088 Bus1=bus_bt_c14282088.1 phases=1 kW=0.5 pf=0.98 kv=0.22
New Load.BT14306219 Bus1=bus_bt_c14306219.2 phases=1 kW=0.5 pf=0.98 kv=0.22
New Load.BT14169166 Bus1=bus_bt_c14169166.2 phases=1 kW=0.5 pf=0.98 kv=0.22
New Load.BT14234660 Bus1=bus_bt_c14234660.3 phases=1 kW=0.5 pf=0.98 kv=0.22
New Load.BT14170598 Bus1=bus_bt_c14170598.2 phases=1 kW=0.5 pf=0.98 kv=0.22
New Load.BT14111421 Bus1=bus_bt_c14111421.3 phases=1 kW=0.5 pf=0.98 kv=0.22
New Load.BT14216031 Bus1=bus_bt_c14216031.1 phases=1 kW=0.5 pf=0.98 kv=0.22
New Load.BT14069543 Bus1=bus_bt_c14069543.3 phases=1 kW=0.5 pf=0.98 kv=0.22
New Load.BT14039213 Bus1=bus_bt_c14039213.2 phases=1 kW=0.5 pf=0.98 kv=0.22
New Load.BT14235229 Bus1=bus_bt_c14235229.2 phases=1 kW=0.5 pf=0.98 kv=0.22
New Load.BT14291136 Bus1=bus_bt_c14291136.2 phases=1 kW=0.5 pf=0.98 kv=0.22
New Load.BT14296543 Bus1=bus_bt_c14296543.3 phases=1 kW=0.5 pf=0.98 kv=0.22
New Load.BT14121919 Bus1=bus_bt_c14121919.3 phases=1 kW=0.5 pf=0.98 kv=0.22
New Load.BT14333393 Bus1=bus_bt_c14333393.3 phases=1 kW=0.5 pf=0.98 kv=0.22
New Load.BT14165581 Bus1=bus_bt_c14165581.3 phases=1 kW=0.5 pf=0.98 kv=0.22
New Load.BT14253858 Bus1=bus_bt_c14253858.3 phases=1 kW=0.5 pf=0.98 kv=0.22
New Load.BT14220670 Bus1=bus_bt_c14220670.1 phases=1 kW=0.5 pf=0.98 kv=0.22
New Load.BT14235455 Bus1=bus_bt_c14235455.2 phases=1 kW=0.5 pf=0.98 kv=0.22
New Load.BT14171408 Bus1=bus_bt_c14171408.1 phases=1 kW=0.5 pf=0.98 kv=0.22
New Load.BT14019152 Bus1=bus_bt_c14019152.1 phases=1 kW=0.5 pf=0.98 kv=0.22
New Load.BT14238248 Bus1=bus_bt_c14238248.3 phases=1 kW=0.5 pf=0.98 kv=0.22
New Load.BT14111365 Bus1=bus_bt_c14111365.3 phases=1 kW=0.5 pf=0.98 kv=0.22
New Load.BT14146994 Bus1=bus_bt_c14146994.3 phases=1 kW=0.5 pf=0.98 kv=0.22
New Load.BT14302414 Bus1=bus_bt_c14302414.3 phases=1 kW=0.5 pf=0.98 kv=0.22
New Load.BT14166540 Bus1=bus_bt_c14166540.3 phases=1 kW=0.5 pf=0.98 kv=0.22
New Load.BT14163187 Bus1=bus_bt_c14163187.2 phases=1 kW=0.5 pf=0.98 kv=0.22
New Load.BT14052468 Bus1=bus_bt_c14052468.3 phases=1 kW=0.5 pf=0.98 kv=0.22
New Load.BT14079695 Bus1=bus_bt_c14079695.2 phases=1 kW=0.5 pf=0.98 kv=0.22
New Load.BT14164322 Bus1=bus_bt_c14164322.2 phases=1 kW=0.5 pf=0.98 kv=0.22
New Load.BT14059253 Bus1=bus_bt_c14059253.2 phases=1 kW=0.5 pf=0.98 kv=0.22
New Load.BT14286477 Bus1=bus_bt_c14286477.2 phases=1 kW=0.5 pf=0.98 kv=0.22
New Load.BT14146750 Bus1=bus_bt_c14146750.3 phases=1 kW=0.5 pf=0.98 kv=0.22
New Load.BT14166558 Bus1=bus_bt_c14166558.2 phases=1 kW=0.5 pf=0.98 kv=0.22
New Load.BT14309435 Bus1=bus_bt_c14309435.2 phases=1 kW=0.5 pf=0.98 kv=0.22
New Load.BT14184579 Bus1=bus_bt_c14184579.1 phases=1 kW=0.5 pf=0.98 kv=0.22
New Load.BT14074923 Bus1=bus_bt_c14074923.2 phases=1 kW=0.5 pf=0.98 kv=0.22
New Load.BT14258615 Bus1=bus_bt_c14258615.2 phases=1 kW=0.5 pf=0.98 kv=0.22
New Load.BT14292482 Bus1=bus_bt_c14292482.3 phases=1 kW=0.5 pf=0.98 kv=0.22
New Load.BT14126314 Bus1=bus_bt_c14126314.1 phases=1 kW=0.5 pf=0.98 kv=0.22
New Load.BT14092727 Bus1=bus_bt_c14092727.1 phases=1 kW=0.5 pf=0.98 kv=0.22
New Load.BT14135156 Bus1=bus_bt_c14135156.1 phases=1 kW=0.5 pf=0.98 kv=0.22
New Load.BT14241582 Bus1=bus_bt_c14241582.3 phases=1 kW=0.5 pf=0.98 kv=0.22
New Load.BT14293167 Bus1=bus_bt_c14293167.3 phases=1 kW=0.5 pf=0.98 kv=0.22
New Load.BT14141718 Bus1=bus_bt_c14141718.1 phases=1 kW=0.5 pf=0.98 kv=0.22
New Load.BT14146702 Bus1=bus_bt_c14146702.2 phases=1 kW=0.5 pf=0.98 kv=0.22
New Load.BT14170312 Bus1=bus_bt_c14170312.3 phases=1 kW=0.5 pf=0.98 kv=0.22
New Load.BT14242624 Bus1=bus_bt_c14242624.3 phases=1 kW=0.5 pf=0.98 kv=0.22
New Load.BT14284601 Bus1=bus_bt_c14284601.3 phases=1 kW=0.5 pf=0.98 kv=0.22
New Load.BT14032047 Bus1=bus_bt_c14032047.3 phases=1 kW=0.5 pf=0.98 kv=0.22
New Load.BT14136538 Bus1=bus_bt_c14136538.3 phases=1 kW=0.5 pf=0.98 kv=0.22
New Load.BT14193407 Bus1=bus_bt_c14193407.1 phases=1 kW=0.5 pf=0.98 kv=0.22
New Load.BT14045486 Bus1=bus_bt_c14045486.1 phases=1 kW=0.5 pf=0.98 kv=0.22
New Load.BT14322392 Bus1=bus_bt_c14322392.1 phases=1 kW=0.5 pf=0.98 kv=0.22
New Load.BT14310173 Bus1=bus_bt_c14310173.1 phases=1 kW=0.5 pf=0.98 kv=0.22
New Load.BT14097470 Bus1=bus_bt_c14097470.3 phases=1 kW=0.5 pf=0.98 kv=0.22
New Load.BT14147765 Bus1=bus_bt_c14147765.2 phases=1 kW=0.5 pf=0.98 kv=0.22
New Load.BT14267818 Bus1=bus_bt_c14267818.2 phases=1 kW=0.5 pf=0.98 kv=0.22
New Load.BT14248296 Bus1=bus_bt_c14248296.2 phases=1 kW=0.5 pf=0.98 kv=0.22
New Load.BT14095686 Bus1=bus_bt_c14095686.2 phases=1 kW=0.5 pf=0.98 kv=0.22
New Load.BT14259306 Bus1=bus_bt_c14259306.2 phases=1 kW=0.5 pf=0.98 kv=0.22
New Load.BT14271805 Bus1=bus_bt_c14271805.3 phases=1 kW=0.5 pf=0.98 kv=0.22
New Load.BT14027521 Bus1=bus_bt_c14027521.2 phases=1 kW=0.5 pf=0.98 kv=0.22
New Load.BT14284726 Bus1=bus_bt_c14284726.1 phases=1 kW=0.5 pf=0.98 kv=0.22
New Load.BT14296254 Bus1=bus_bt_c14296254.2 phases=1 kW=0.5 pf=0.98 kv=0.22
New Load.BT14315964 Bus1=bus_bt_c14315964.1 phases=1 kW=0.5 pf=0.98 kv=0.22
New Load.BT14316494 Bus1=bus_bt_c14316494.3 phases=1 kW=0.5 pf=0.98 kv=0.22
New Load.BT14164965 Bus1=bus_bt_c14164965.1 phases=1 kW=0.5 pf=0.98 kv=0.22
New Load.BT14318682 Bus1=bus_bt_c14318682.3 phases=1 kW=0.5 pf=0.98 kv=0.22
New Load.BT14228789 Bus1=bus_bt_c14228789.3 phases=1 kW=0.5 pf=0.98 kv=0.22
New Load.BT14114378 Bus1=bus_bt_c14114378.1 phases=1 kW=0.5 pf=0.98 kv=0.22
New Load.BT14321058 Bus1=bus_bt_c14321058.1 phases=1 kW=0.5 pf=0.98 kv=0.22
New Load.BT14144609 Bus1=bus_bt_c14144609.2 phases=1 kW=0.5 pf=0.98 kv=0.22
New Load.BT14332172 Bus1=bus_bt_c14332172.2 phases=1 kW=0.5 pf=0.98 kv=0.22
New Load.BT14275273 Bus1=bus_bt_c14275273.1 phases=1 kW=0.5 pf=0.98 kv=0.22
New Load.BT14236512 Bus1=bus_bt_c14236512.3 phases=1 kW=0.5 pf=0.98 kv=0.22
New Load.BT14243967 Bus1=bus_bt_c14243967.1 phases=1 kW=0.5 pf=0.98 kv=0.22
New Load.BT14049092 Bus1=bus_bt_c14049092.1 phases=1 kW=0.5 pf=0.98 kv=0.22
New Load.BT14252024 Bus1=bus_bt_c14252024.3 phases=1 kW=0.5 pf=0.98 kv=0.22
New Load.BT14120517 Bus1=bus_bt_c14120517.2 phases=1 kW=0.5 pf=0.98 kv=0.22
New Load.BT14137112 Bus1=bus_bt_c14137112.2 phases=1 kW=0.5 pf=0.98 kv=0.22
New Load.BT14167555 Bus1=bus_bt_c14167555.2 phases=1 kW=0.5 pf=0.98 kv=0.22
New Load.BT14552530 Bus1=bus_bt_c14552530.1 phases=1 kW=0.5 pf=0.98 kv=0.22
New Load.BT14215150 Bus1=bus_bt_c14215150.1 phases=1 kW=0.5 pf=0.98 kv=0.22
New Load.BT14056502 Bus1=bus_bt_c14056502.2 phases=1 kW=0.5 pf=0.98 kv=0.22
New Load.BT14177216 Bus1=bus_bt_c14177216.2 phases=1 kW=0.5 pf=0.98 kv=0.22
New Load.BT14151159 Bus1=bus_bt_c14151159.2 phases=1 kW=0.5 pf=0.98 kv=0.22
New Load.BT14187241 Bus1=bus_bt_c14187241.1 phases=1 kW=0.5 pf=0.98 kv=0.22
New Load.BT14188634 Bus1=bus_bt_c14188634.2 phases=1 kW=0.5 pf=0.98 kv=0.22
New Load.BT14189343 Bus1=bus_bt_c14189343.3 phases=1 kW=0.5 pf=0.98 kv=0.22
New Load.BT14201597 Bus1=bus_bt_c14201597.3 phases=1 kW=0.5 pf=0.98 kv=0.22
New Load.BT14268360 Bus1=bus_bt_c14268360.1 phases=1 kW=0.5 pf=0.98 kv=0.22
New Load.BT14184716 Bus1=bus_bt_c14184716.2 phases=1 kW=0.5 pf=0.98 kv=0.22
New Load.BT14062701 Bus1=bus_bt_c14062701.2 phases=1 kW=0.5 pf=0.98 kv=0.22
New Load.BT14088493 Bus1=bus_bt_c14088493.3 phases=1 kW=0.5 pf=0.98 kv=0.22
New Load.BT14065083 Bus1=bus_bt_c14065083.1 phases=1 kW=0.5 pf=0.98 kv=0.22
New Load.BT14095835 Bus1=bus_bt_c14095835.1 phases=1 kW=0.5 pf=0.98 kv=0.22
New Load.BT14288138 Bus1=bus_bt_c14288138.1 phases=1 kW=0.5 pf=0.98 kv=0.22
New Load.BT14313490 Bus1=bus_bt_c14313490.3 phases=1 kW=0.5 pf=0.98 kv=0.22
New Load.BT14319745 Bus1=bus_bt_c14319745.1 phases=1 kW=0.5 pf=0.98 kv=0.22
New Load.BT14232272 Bus1=bus_bt_c14232272.1 phases=1 kW=0.5 pf=0.98 kv=0.22
New Load.BT14297320 Bus1=bus_bt_c14297320.2 phases=1 kW=0.5 pf=0.98 kv=0.22
New Load.BT14226401 Bus1=bus_bt_c14226401.3 phases=1 kW=0.5 pf=0.98 kv=0.22
New Load.BT14061745 Bus1=bus_bt_c14061745.1 phases=1 kW=0.5 pf=0.98 kv=0.22
New Load.BT14239802 Bus1=bus_bt_c14239802.2 phases=1 kW=0.5 pf=0.98 kv=0.22
New Load.BT14226949 Bus1=bus_bt_c14226949.1 phases=1 kW=0.5 pf=0.98 kv=0.22
New Load.BT14031642 Bus1=bus_bt_c14031642.2 phases=1 kW=0.5 pf=0.98 kv=0.22
New Load.BT14134918 Bus1=bus_bt_c14134918.2 phases=1 kW=0.5 pf=0.98 kv=0.22
New Load.BT14013010 Bus1=bus_bt_c14013010.3 phases=1 kW=0.5 pf=0.98 kv=0.22
New Load.BT14280662 Bus1=bus_bt_c14280662.3 phases=1 kW=0.5 pf=0.98 kv=0.22
New Load.BT14313597 Bus1=bus_bt_c14313597.1 phases=1 kW=0.5 pf=0.98 kv=0.22
New Load.BT14316113 Bus1=bus_bt_c14316113.3 phases=1 kW=0.5 pf=0.98 kv=0.22
New Load.BT14236816 Bus1=bus_bt_c14236816.2 phases=1 kW=0.5 pf=0.98 kv=0.22
New Load.BT14327897 Bus1=bus_bt_c14327897.2 phases=1 kW=0.5 pf=0.98 kv=0.22
New Load.BT14299717 Bus1=bus_bt_c14299717.1 phases=1 kW=0.5 pf=0.98 kv=0.22
New Load.BT14329326 Bus1=bus_bt_c14329326.1 phases=1 kW=0.5 pf=0.98 kv=0.22